
This summary file was generated by TurbSim (v2.00.07a-bjj, 14-Jun-2016) on 23-Mar-2020 at 10:25:31.


Runtime Options:

        41  Random seed #1
        42  Random seed #2
         F  Output binary HH turbulence parameters?
         F  Output formatted turbulence parameters?
         F  Output AeroDyn HH files?
         T  Output AeroDyn FF files?
         F  Output BLADED FF files?
         F  Output tower data?
         F  Output formatted FF files?
         F  Output coherent turbulence time step file?
         T  Clockwise rotation when looking downwind?
 0 -  NONE  IEC turbulence models scaled to exact specified standard deviation


Turbine/Model Specifications:

        13  Vertical grid-point matrix dimension
        13  Horizontal grid-point matrix dimension
     0.050  Time step [seconds]
  3630.000  Analysis time [seconds]
  3630.000  Usable output time [seconds]
    90.000  Hub height [m]
   165.000  Grid height [m]
   165.000  Grid width [m]
     0.000  Vertical flow angle [degrees]
     0.000  Horizontal flow angle [degrees]


Meteorological Boundary Conditions:

    IECKAI  IEC Kaimal spectral model
         3  IEC standard: IEC 61400-3 Ed. 1: 2006
    11.000  Percent turbulence intensity, IEC 61400-3 Ed. 1: 2006
       NTM  IEC Normal Turbulence Model
       N/A  IEC Extreme Turbulence Model (ETM) "c" parameter [m/s]
       IEC  Wind profile type
    90.000  Reference height [m]
    75.000  Reference wind speed [m/s]
       N/A  Jet height [m]
     0.140  Power law exponent
     0.030  Surface roughness length [m]


Non-IEC Meteorological Boundary Conditions:

       N/A  Site latitude [degrees]
       N/A  Gradient Richardson number
       N/A  Friction or shear velocity [m/s]
       N/A  Mixing layer depth [m]
       N/A  Mean hub u'w' Reynolds stress
       N/A  Mean hub u'v' Reynolds stress
       N/A  Mean hub v'w' Reynolds stress


Spatial Coherence Models:

       IEC  u-component coherence model
      NONE  v-component coherence model
      NONE  w-component coherence model
(   12.000, 0.353E-03)  u-component coherence parameters
                   N/A  v-component coherence parameters
                   N/A  w-component coherence parameters
       N/A  Coherence exponent


You have requested that the following file(s) be generated:

   4_75.bts (AeroDyn/TurbSim full-field wind file)


Turbulence Simulation Scaling Parameter Summary:

   Turbulence model used                            =  IEC Kaimal
   Turbulence characteristic                        =  User-specified
   IEC standard                                     =  IEC 61400-3 Ed. 1: 2006
   Mean wind speed at hub height                    =   75.000 m/s
   Characteristic value of standard deviation       =    8.250 m/s
   Turbulence scale                                 =   42.000 m
   u-component integral scale                       =  340.200 m
   Coherency scale                                  =  340.200 m
   Characteristic value of hub turbulence intensity =   11.000%
   Gradient Richardson number                       =    0.000

   Wind profile type                                =  Power law on rotor disk, logarithmic elsewhere
   Power law exponent                               =    0.140
   Mean shear across rotor disk                     =    0.177 (m/s)/m
   Assumed rotor diameter                           =  165.000 m
   Surface roughness length                         =    0.030 m

   Nyquist frequency of turbulent wind field        =   10.000 Hz

   Number of time steps in the FFT                  =    72600
   Number of time steps output                      =    72600
   Number of points simulated                       =      169


Mean Flow Angles:

   Vertical   =   0.0 degrees
   Horizontal =   0.0 degrees

Mean Wind Speed Profile:

   Height    Wind Speed   Horizontal Angle  Vertical Angle  U-comp (X)   V-comp (Y)   W-comp (Z)
     (m)        (m/s)         (degrees)       (degrees)       (m/s)        (m/s)        (m/s)   
   ------    ----------   ----------------  --------------  ----------   ----------   ----------
    172.5       82.15            0.00            0.00         82.15         0.00         0.00
    158.8       81.20            0.00            0.00         81.20         0.00         0.00
    145.0       80.18            0.00            0.00         80.18         0.00         0.00
    131.2       79.07            0.00            0.00         79.07         0.00         0.00
    117.5       77.85            0.00            0.00         77.85         0.00         0.00
    103.8       76.51            0.00            0.00         76.51         0.00         0.00
     90.0       75.00            0.00            0.00         75.00         0.00         0.00
     76.2       73.28            0.00            0.00         73.28         0.00         0.00
     62.5       71.27            0.00            0.00         71.27         0.00         0.00
     48.8       68.83            0.00            0.00         68.83         0.00         0.00
     35.0       65.71            0.00            0.00         65.71         0.00         0.00
     21.2       61.28            0.00            0.00         61.28         0.00         0.00
      7.5       52.96            0.00            0.00         52.96         0.00         0.00


Harvested Random Seeds after Generation of the Random Numbers:

   2110154368 Harvested seed # 1
    967694281 Harvested seed # 2


Hub-Height Simulated Turbulence Statistical Summary:

   Type of Wind        Min (m/s)   Mean (m/s)    Max (m/s)  Sigma (m/s)       TI (%)
   ----------------    ---------   ----------    ---------  -----------       ------
   Longitudinal (u)        43.87        75.00       108.96        8.338       11.117
   Lateral (v)            -28.50         0.00        27.95        6.433        8.577
   Vertical (w)           -15.29        -0.00        16.01        3.862        5.150
   U component             43.87        75.00       108.96        8.338       11.117
   V component            -28.50         0.00        27.95        6.433        8.577
   W component            -15.29        -0.00        16.01        3.862        5.150
   Horizontal (U&V)        44.41        75.28       109.29        8.304       11.031
   Total                   44.44        75.38       109.31        8.295       11.004

                       Min Reynolds     Mean Reynolds    Max Reynolds    Correlation
   Product             Stress (m/s)^2   Stress (m/s)^2   Stress (m/s)^2  Coefficient
   ----------------    --------------   --------------   --------------  -----------
   u'w'                   -285.313            -0.005           385.818        -0.000
   u'v'                   -462.797            -3.012           435.906        -0.056
   v'w'                   -228.386             0.187           197.947         0.008


   Friction Velocity (Ustar)  =      0.072 m/s
   Maximum Instantaneous TKE  =    614.207 (m/s)^2
   Maximum Instantaneous CTKE =    265.934 (m/s)^2


Grid Point Variance Summary:

   Y-coord  -82.50  -68.75  -55.00  -41.25  -27.50  -13.75    0.00   13.75   27.50   41.25   55.00   68.75   82.50

   Height   Standard deviation at grid points for the u component:
   172.50    8.377   8.209   8.278   8.436   8.466   8.339   8.218   8.254   8.154   8.137   8.163   8.056   7.990
   158.75    8.259   8.239   8.323   8.335   8.247   8.348   8.218   8.284   8.262   8.262   8.239   8.132   8.019
   145.00    8.168   8.248   8.368   8.299   8.169   8.184   8.393   8.387   8.259   8.272   8.326   8.337   8.184
   131.25    8.158   8.263   8.359   8.307   8.268   8.264   8.301   8.348   8.262   8.328   8.267   8.272   8.220
   117.50    8.111   8.323   8.302   8.343   8.332   8.207   8.290   8.329   8.390   8.249   8.198   8.122   8.040
   103.75    8.257   8.428   8.300   8.301   8.386   8.320   8.357   8.255   8.254   8.206   8.149   8.194   8.126
    90.00    8.459   8.412   8.350   8.256   8.217   8.138   8.338   8.340   8.203   8.294   8.152   8.157   8.164
    76.25    8.348   8.360   8.407   8.287   8.220   8.137   8.230   8.167   8.143   8.173   8.199   8.172   8.231
    62.50    8.310   8.406   8.188   8.206   8.185   8.165   8.086   8.201   8.140   8.171   8.207   8.104   8.270
    48.75    8.217   8.282   8.266   8.184   8.186   8.229   8.038   8.007   8.031   8.070   8.070   8.169   8.177
    35.00    8.202   8.149   8.187   8.135   8.131   8.181   8.088   8.111   8.121   8.023   7.971   8.046   8.159
    21.25    8.124   8.076   8.109   8.109   8.145   8.095   8.024   8.040   7.962   7.979   7.998   8.064   8.060
     7.50    8.141   8.032   8.165   8.253   8.121   8.232   8.014   7.956   7.917   7.881   7.970   7.951   7.941

   Height   Standard deviation at grid points for the v component:
   172.50    6.433   6.433   6.433   6.433   6.433   6.433   6.433   6.433   6.433   6.433   6.433   6.433   6.433
   158.75    6.433   6.433   6.433   6.433   6.433   6.433   6.433   6.433   6.433   6.433   6.433   6.433   6.433
   145.00    6.433   6.433   6.433   6.433   6.433   6.433   6.433   6.433   6.433   6.433   6.433   6.433   6.433
   131.25    6.433   6.433   6.433   6.433   6.433   6.433   6.433   6.433   6.433   6.433   6.433   6.433   6.433
   117.50    6.433   6.433   6.433   6.433   6.433   6.433   6.433   6.433   6.433   6.433   6.433   6.433   6.433
   103.75    6.433   6.433   6.433   6.433   6.433   6.433   6.433   6.433   6.433   6.433   6.433   6.433   6.433
    90.00    6.433   6.433   6.433   6.433   6.433   6.433   6.433   6.433   6.433   6.433   6.433   6.433   6.433
    76.25    6.433   6.433   6.433   6.433   6.433   6.433   6.433   6.433   6.433   6.433   6.433   6.433   6.433
    62.50    6.433   6.433   6.433   6.433   6.433   6.433   6.433   6.433   6.433   6.433   6.433   6.433   6.433
    48.75    6.433   6.433   6.433   6.433   6.433   6.433   6.433   6.433   6.433   6.433   6.433   6.433   6.433
    35.00    6.433   6.433   6.433   6.433   6.433   6.433   6.433   6.433   6.433   6.433   6.433   6.433   6.433
    21.25    6.433   6.433   6.433   6.433   6.433   6.433   6.433   6.433   6.433   6.433   6.433   6.433   6.433
     7.50    6.433   6.433   6.433   6.433   6.433   6.433   6.433   6.433   6.433   6.433   6.433   6.433   6.433

   Height   Standard deviation at grid points for the w component:
   172.50    3.862   3.862   3.862   3.862   3.862   3.862   3.862   3.862   3.862   3.862   3.862   3.862   3.862
   158.75    3.862   3.862   3.862   3.862   3.862   3.862   3.862   3.862   3.862   3.862   3.862   3.862   3.862
   145.00    3.862   3.862   3.862   3.862   3.862   3.862   3.862   3.862   3.862   3.862   3.862   3.862   3.862
   131.25    3.862   3.862   3.862   3.862   3.862   3.862   3.862   3.862   3.862   3.862   3.862   3.862   3.862
   117.50    3.862   3.862   3.862   3.862   3.862   3.862   3.862   3.862   3.862   3.862   3.862   3.862   3.862
   103.75    3.862   3.862   3.862   3.862   3.862   3.862   3.862   3.862   3.862   3.862   3.862   3.862   3.862
    90.00    3.862   3.862   3.862   3.862   3.862   3.862   3.862   3.862   3.862   3.862   3.862   3.862   3.862
    76.25    3.862   3.862   3.862   3.862   3.862   3.862   3.862   3.862   3.862   3.862   3.862   3.862   3.862
    62.50    3.862   3.862   3.862   3.862   3.862   3.862   3.862   3.862   3.862   3.862   3.862   3.862   3.862
    48.75    3.862   3.862   3.862   3.862   3.862   3.862   3.862   3.862   3.862   3.862   3.862   3.862   3.862
    35.00    3.862   3.862   3.862   3.862   3.862   3.862   3.862   3.862   3.862   3.862   3.862   3.862   3.862
    21.25    3.862   3.862   3.862   3.862   3.862   3.862   3.862   3.862   3.862   3.862   3.862   3.862   3.862
     7.50    3.862   3.862   3.862   3.862   3.862   3.862   3.862   3.862   3.862   3.862   3.862   3.862   3.862

   Mean standard deviation across all grid points:
      u component:    8.202 m/s
      v component:    6.433 m/s
      w component:    3.862 m/s


U-component (X) statistics from the interpolated hub point:

   Mean =  75.0000 m/s
   TI   =  11.1171 %


Processing complete.  15.922 CPU seconds used.
