
This summary file was generated by TurbSim (v2.00.07a-bjj, 14-Jun-2016) on 23-Mar-2020 at 10:27:35.


Runtime Options:

        41  Random seed #1
        42  Random seed #2
         F  Output binary HH turbulence parameters?
         F  Output formatted turbulence parameters?
         F  Output AeroDyn HH files?
         T  Output AeroDyn FF files?
         F  Output BLADED FF files?
         F  Output tower data?
         F  Output formatted FF files?
         F  Output coherent turbulence time step file?
         T  Clockwise rotation when looking downwind?
 0 -  NONE  IEC turbulence models scaled to exact specified standard deviation


Turbine/Model Specifications:

        13  Vertical grid-point matrix dimension
        13  Horizontal grid-point matrix dimension
     0.050  Time step [seconds]
  3630.000  Analysis time [seconds]
  3630.000  Usable output time [seconds]
    90.000  Hub height [m]
   165.000  Grid height [m]
   165.000  Grid width [m]
     0.000  Vertical flow angle [degrees]
     0.000  Horizontal flow angle [degrees]


Meteorological Boundary Conditions:

    IECKAI  IEC Kaimal spectral model
         3  IEC standard: IEC 61400-3 Ed. 1: 2006
    11.000  Percent turbulence intensity, IEC 61400-3 Ed. 1: 2006
       NTM  IEC Normal Turbulence Model
       N/A  IEC Extreme Turbulence Model (ETM) "c" parameter [m/s]
       IEC  Wind profile type
    90.000  Reference height [m]
    95.000  Reference wind speed [m/s]
       N/A  Jet height [m]
     0.140  Power law exponent
     0.030  Surface roughness length [m]


Non-IEC Meteorological Boundary Conditions:

       N/A  Site latitude [degrees]
       N/A  Gradient Richardson number
       N/A  Friction or shear velocity [m/s]
       N/A  Mixing layer depth [m]
       N/A  Mean hub u'w' Reynolds stress
       N/A  Mean hub u'v' Reynolds stress
       N/A  Mean hub v'w' Reynolds stress


Spatial Coherence Models:

       IEC  u-component coherence model
      NONE  v-component coherence model
      NONE  w-component coherence model
(   12.000, 0.353E-03)  u-component coherence parameters
                   N/A  v-component coherence parameters
                   N/A  w-component coherence parameters
       N/A  Coherence exponent


You have requested that the following file(s) be generated:

   4_95.bts (AeroDyn/TurbSim full-field wind file)


Turbulence Simulation Scaling Parameter Summary:

   Turbulence model used                            =  IEC Kaimal
   Turbulence characteristic                        =  User-specified
   IEC standard                                     =  IEC 61400-3 Ed. 1: 2006
   Mean wind speed at hub height                    =   95.000 m/s
   Characteristic value of standard deviation       =   10.450 m/s
   Turbulence scale                                 =   42.000 m
   u-component integral scale                       =  340.200 m
   Coherency scale                                  =  340.200 m
   Characteristic value of hub turbulence intensity =   11.000%
   Gradient Richardson number                       =    0.000

   Wind profile type                                =  Power law on rotor disk, logarithmic elsewhere
   Power law exponent                               =    0.140
   Mean shear across rotor disk                     =    0.224 (m/s)/m
   Assumed rotor diameter                           =  165.000 m
   Surface roughness length                         =    0.030 m

   Nyquist frequency of turbulent wind field        =   10.000 Hz

   Number of time steps in the FFT                  =    72600
   Number of time steps output                      =    72600
   Number of points simulated                       =      169


Mean Flow Angles:

   Vertical   =   0.0 degrees
   Horizontal =   0.0 degrees

Mean Wind Speed Profile:

   Height    Wind Speed   Horizontal Angle  Vertical Angle  U-comp (X)   V-comp (Y)   W-comp (Z)
     (m)        (m/s)         (degrees)       (degrees)       (m/s)        (m/s)        (m/s)   
   ------    ----------   ----------------  --------------  ----------   ----------   ----------
    172.5      104.06            0.00            0.00        104.06         0.00         0.00
    158.8      102.86            0.00            0.00        102.86         0.00         0.00
    145.0      101.56            0.00            0.00        101.56         0.00         0.00
    131.2      100.15            0.00            0.00        100.15         0.00         0.00
    117.5       98.61            0.00            0.00         98.61         0.00         0.00
    103.8       96.91            0.00            0.00         96.91         0.00         0.00
     90.0       95.00            0.00            0.00         95.00         0.00         0.00
     76.2       92.82            0.00            0.00         92.82         0.00         0.00
     62.5       90.27            0.00            0.00         90.27         0.00         0.00
     48.8       87.19            0.00            0.00         87.19         0.00         0.00
     35.0       83.23            0.00            0.00         83.23         0.00         0.00
     21.2       77.62            0.00            0.00         77.62         0.00         0.00
      7.5       67.09            0.00            0.00         67.09         0.00         0.00


Harvested Random Seeds after Generation of the Random Numbers:

   2110154368 Harvested seed # 1
    967694281 Harvested seed # 2


Hub-Height Simulated Turbulence Statistical Summary:

   Type of Wind        Min (m/s)   Mean (m/s)    Max (m/s)  Sigma (m/s)       TI (%)
   ----------------    ---------   ----------    ---------  -----------       ------
   Longitudinal (u)        55.22        95.00       137.67       10.504       11.057
   Lateral (v)            -35.75         0.00        35.93        8.113        8.540
   Vertical (w)           -19.21        -0.00        19.86        4.837        5.091
   U component             55.22        95.00       137.67       10.504       11.057
   V component            -35.75         0.00        35.93        8.113        8.540
   W component            -19.21        -0.00        19.86        4.837        5.091
   Horizontal (U&V)        55.90        95.35       137.83       10.463       10.974
   Total                   55.94        95.47       137.83       10.451       10.947

                       Min Reynolds     Mean Reynolds    Max Reynolds    Correlation
   Product             Stress (m/s)^2   Stress (m/s)^2   Stress (m/s)^2  Coefficient
   ----------------    --------------   --------------   --------------  -----------
   u'w'                   -460.561            -0.010           598.037        -0.000
   u'v'                   -740.090            -4.013           692.877        -0.047
   v'w'                   -359.176             0.217           311.576         0.006


   Friction Velocity (Ustar)  =      0.099 m/s
   Maximum Instantaneous TKE  =    952.935 (m/s)^2
   Maximum Instantaneous CTKE =    424.920 (m/s)^2


Grid Point Variance Summary:

   Y-coord  -82.50  -68.75  -55.00  -41.25  -27.50  -13.75    0.00   13.75   27.50   41.25   55.00   68.75   82.50

   Height   Standard deviation at grid points for the u component:
   172.50   10.554  10.353  10.435  10.606  10.641  10.497  10.368  10.393  10.284  10.292  10.322  10.202  10.121
   158.75   10.415  10.406  10.499  10.513  10.404  10.518  10.368  10.449  10.415  10.415  10.389  10.279  10.166
   145.00   10.312  10.410  10.541  10.461  10.324  10.328  10.576  10.577  10.420  10.421  10.479  10.510  10.331
   131.25   10.305  10.426  10.522  10.469  10.427  10.422  10.475  10.511  10.414  10.475  10.404  10.417  10.372
   117.50   10.274  10.495  10.463  10.522  10.502  10.373  10.474  10.502  10.551  10.408  10.344  10.252  10.156
   103.75   10.448  10.616  10.465  10.471  10.567  10.492  10.546  10.418  10.420  10.359  10.297  10.338  10.262
    90.00   10.668  10.613  10.547  10.444  10.387  10.288  10.504  10.508  10.361  10.457  10.293  10.293  10.299
    76.25   10.544  10.545  10.598  10.454  10.370  10.297  10.402  10.325  10.293  10.324  10.341  10.317  10.380
    62.50   10.492  10.595  10.351  10.362  10.348  10.328  10.245  10.376  10.295  10.327  10.366  10.232  10.421
    48.75   10.377  10.439  10.417  10.343  10.351  10.400  10.183  10.146  10.177  10.214  10.214  10.299  10.294
    35.00   10.346  10.292  10.338  10.286  10.288  10.345  10.234  10.292  10.300  10.185  10.114  10.167  10.281
    21.25   10.261  10.203  10.235  10.247  10.303  10.260  10.183  10.195  10.115  10.132  10.145  10.204  10.180
     7.50   10.293  10.161  10.297  10.402  10.268  10.412  10.173  10.098  10.042  10.008  10.119  10.078  10.060

   Height   Standard deviation at grid points for the v component:
   172.50    8.113   8.113   8.113   8.113   8.113   8.113   8.113   8.113   8.113   8.113   8.113   8.113   8.113
   158.75    8.113   8.113   8.113   8.113   8.113   8.113   8.113   8.113   8.113   8.113   8.113   8.113   8.113
   145.00    8.113   8.113   8.113   8.113   8.113   8.113   8.113   8.113   8.113   8.113   8.113   8.113   8.113
   131.25    8.113   8.113   8.113   8.113   8.113   8.113   8.113   8.113   8.113   8.113   8.113   8.113   8.113
   117.50    8.113   8.113   8.113   8.113   8.113   8.113   8.113   8.113   8.113   8.113   8.113   8.113   8.113
   103.75    8.113   8.113   8.113   8.113   8.113   8.113   8.113   8.113   8.113   8.113   8.113   8.113   8.113
    90.00    8.113   8.113   8.113   8.113   8.113   8.113   8.113   8.113   8.113   8.113   8.113   8.113   8.113
    76.25    8.113   8.113   8.113   8.113   8.113   8.113   8.113   8.113   8.113   8.113   8.113   8.113   8.113
    62.50    8.113   8.113   8.113   8.113   8.113   8.113   8.113   8.113   8.113   8.113   8.113   8.113   8.113
    48.75    8.113   8.113   8.113   8.113   8.113   8.113   8.113   8.113   8.113   8.113   8.113   8.113   8.113
    35.00    8.113   8.113   8.113   8.113   8.113   8.113   8.113   8.113   8.113   8.113   8.113   8.113   8.113
    21.25    8.113   8.113   8.113   8.113   8.113   8.113   8.113   8.113   8.113   8.113   8.113   8.113   8.113
     7.50    8.113   8.113   8.113   8.113   8.113   8.113   8.113   8.113   8.113   8.113   8.113   8.113   8.113

   Height   Standard deviation at grid points for the w component:
   172.50    4.837   4.837   4.837   4.837   4.837   4.837   4.837   4.837   4.837   4.837   4.837   4.837   4.837
   158.75    4.837   4.837   4.837   4.837   4.837   4.837   4.837   4.837   4.837   4.837   4.837   4.837   4.837
   145.00    4.837   4.837   4.837   4.837   4.837   4.837   4.837   4.837   4.837   4.837   4.837   4.837   4.837
   131.25    4.837   4.837   4.837   4.837   4.837   4.837   4.837   4.837   4.837   4.837   4.837   4.837   4.837
   117.50    4.837   4.837   4.837   4.837   4.837   4.837   4.837   4.837   4.837   4.837   4.837   4.837   4.837
   103.75    4.837   4.837   4.837   4.837   4.837   4.837   4.837   4.837   4.837   4.837   4.837   4.837   4.837
    90.00    4.837   4.837   4.837   4.837   4.837   4.837   4.837   4.837   4.837   4.837   4.837   4.837   4.837
    76.25    4.837   4.837   4.837   4.837   4.837   4.837   4.837   4.837   4.837   4.837   4.837   4.837   4.837
    62.50    4.837   4.837   4.837   4.837   4.837   4.837   4.837   4.837   4.837   4.837   4.837   4.837   4.837
    48.75    4.837   4.837   4.837   4.837   4.837   4.837   4.837   4.837   4.837   4.837   4.837   4.837   4.837
    35.00    4.837   4.837   4.837   4.837   4.837   4.837   4.837   4.837   4.837   4.837   4.837   4.837   4.837
    21.25    4.837   4.837   4.837   4.837   4.837   4.837   4.837   4.837   4.837   4.837   4.837   4.837   4.837
     7.50    4.837   4.837   4.837   4.837   4.837   4.837   4.837   4.837   4.837   4.837   4.837   4.837   4.837

   Mean standard deviation across all grid points:
      u component:   10.359 m/s
      v component:    8.113 m/s
      w component:    4.837 m/s


U-component (X) statistics from the interpolated hub point:

   Mean =  95.0000 m/s
   TI   =  11.0573 %


Processing complete.  15.859 CPU seconds used.
