
This summary file was generated by TurbSim (v2.00.07a-bjj, 14-Jun-2016) on 23-Mar-2020 at 10:15:37.


Runtime Options:

        31  Random seed #1
        32  Random seed #2
         F  Output binary HH turbulence parameters?
         F  Output formatted turbulence parameters?
         F  Output AeroDyn HH files?
         T  Output AeroDyn FF files?
         F  Output BLADED FF files?
         F  Output tower data?
         F  Output formatted FF files?
         F  Output coherent turbulence time step file?
         T  Clockwise rotation when looking downwind?
 0 -  NONE  IEC turbulence models scaled to exact specified standard deviation


Turbine/Model Specifications:

        13  Vertical grid-point matrix dimension
        13  Horizontal grid-point matrix dimension
     0.050  Time step [seconds]
  3630.000  Analysis time [seconds]
  3630.000  Usable output time [seconds]
    90.000  Hub height [m]
   165.000  Grid height [m]
   165.000  Grid width [m]
     0.000  Vertical flow angle [degrees]
     0.000  Horizontal flow angle [degrees]


Meteorological Boundary Conditions:

    IECKAI  IEC Kaimal spectral model
         3  IEC standard: IEC 61400-3 Ed. 1: 2006
    11.000  Percent turbulence intensity, IEC 61400-3 Ed. 1: 2006
       NTM  IEC Normal Turbulence Model
       N/A  IEC Extreme Turbulence Model (ETM) "c" parameter [m/s]
       IEC  Wind profile type
    90.000  Reference height [m]
    60.000  Reference wind speed [m/s]
       N/A  Jet height [m]
     0.140  Power law exponent
     0.030  Surface roughness length [m]


Non-IEC Meteorological Boundary Conditions:

       N/A  Site latitude [degrees]
       N/A  Gradient Richardson number
       N/A  Friction or shear velocity [m/s]
       N/A  Mixing layer depth [m]
       N/A  Mean hub u'w' Reynolds stress
       N/A  Mean hub u'v' Reynolds stress
       N/A  Mean hub v'w' Reynolds stress


Spatial Coherence Models:

       IEC  u-component coherence model
      NONE  v-component coherence model
      NONE  w-component coherence model
(   12.000, 0.353E-03)  u-component coherence parameters
                   N/A  v-component coherence parameters
                   N/A  w-component coherence parameters
       N/A  Coherence exponent


You have requested that the following file(s) be generated:

   3_60.bts (AeroDyn/TurbSim full-field wind file)


Turbulence Simulation Scaling Parameter Summary:

   Turbulence model used                            =  IEC Kaimal
   Turbulence characteristic                        =  User-specified
   IEC standard                                     =  IEC 61400-3 Ed. 1: 2006
   Mean wind speed at hub height                    =   60.000 m/s
   Characteristic value of standard deviation       =    6.600 m/s
   Turbulence scale                                 =   42.000 m
   u-component integral scale                       =  340.200 m
   Coherency scale                                  =  340.200 m
   Characteristic value of hub turbulence intensity =   11.000%
   Gradient Richardson number                       =    0.000

   Wind profile type                                =  Power law on rotor disk, logarithmic elsewhere
   Power law exponent                               =    0.140
   Mean shear across rotor disk                     =    0.142 (m/s)/m
   Assumed rotor diameter                           =  165.000 m
   Surface roughness length                         =    0.030 m

   Nyquist frequency of turbulent wind field        =   10.000 Hz

   Number of time steps in the FFT                  =    72600
   Number of time steps output                      =    72600
   Number of points simulated                       =      169


Mean Flow Angles:

   Vertical   =   0.0 degrees
   Horizontal =   0.0 degrees

Mean Wind Speed Profile:

   Height    Wind Speed   Horizontal Angle  Vertical Angle  U-comp (X)   V-comp (Y)   W-comp (Z)
     (m)        (m/s)         (degrees)       (degrees)       (m/s)        (m/s)        (m/s)   
   ------    ----------   ----------------  --------------  ----------   ----------   ----------
    172.5       65.72            0.00            0.00         65.72         0.00         0.00
    158.8       64.96            0.00            0.00         64.96         0.00         0.00
    145.0       64.14            0.00            0.00         64.14         0.00         0.00
    131.2       63.25            0.00            0.00         63.25         0.00         0.00
    117.5       62.28            0.00            0.00         62.28         0.00         0.00
    103.8       61.21            0.00            0.00         61.21         0.00         0.00
     90.0       60.00            0.00            0.00         60.00         0.00         0.00
     76.2       58.62            0.00            0.00         58.62         0.00         0.00
     62.5       57.01            0.00            0.00         57.01         0.00         0.00
     48.8       55.06            0.00            0.00         55.06         0.00         0.00
     35.0       52.57            0.00            0.00         52.57         0.00         0.00
     21.2       49.02            0.00            0.00         49.02         0.00         0.00
      7.5       42.37            0.00            0.00         42.37         0.00         0.00


Harvested Random Seeds after Generation of the Random Numbers:

    705062557 Harvested seed # 1
    839551995 Harvested seed # 2


Hub-Height Simulated Turbulence Statistical Summary:

   Type of Wind        Min (m/s)   Mean (m/s)    Max (m/s)  Sigma (m/s)       TI (%)
   ----------------    ---------   ----------    ---------  -----------       ------
   Longitudinal (u)        36.00        60.00        84.90        6.354       10.590
   Lateral (v)            -22.72        -0.00        21.92        5.164        8.607
   Vertical (w)           -13.54        -0.00        13.08        3.119        5.198
   U component             36.00        60.00        84.90        6.354       10.590
   V component            -22.72        -0.00        21.92        5.164        8.607
   W component            -13.54        -0.00        13.08        3.119        5.198
   Horizontal (U&V)        36.20        60.22        85.06        6.337       10.522
   Total                   36.43        60.31        85.06        6.330       10.497

                       Min Reynolds     Mean Reynolds    Max Reynolds    Correlation
   Product             Stress (m/s)^2   Stress (m/s)^2   Stress (m/s)^2  Coefficient
   ----------------    --------------   --------------   --------------  -----------
   u'w'                   -182.478             0.029           195.211         0.001
   u'v'                   -275.711            -0.412           321.574        -0.013
   v'w'                   -139.116             0.004           144.969         0.000


   Friction Velocity (Ustar)  =      0.170 m/s
   Maximum Instantaneous TKE  =    328.243 (m/s)^2
   Maximum Instantaneous CTKE =    166.971 (m/s)^2


Grid Point Variance Summary:

   Y-coord  -82.50  -68.75  -55.00  -41.25  -27.50  -13.75    0.00   13.75   27.50   41.25   55.00   68.75   82.50

   Height   Standard deviation at grid points for the u component:
   172.50    6.312   6.298   6.351   6.478   6.556   6.466   6.458   6.257   6.330   6.393   6.452   6.586   6.472
   158.75    6.297   6.154   6.189   6.319   6.407   6.409   6.303   6.204   6.242   6.409   6.542   6.601   6.507
   145.00    6.287   6.204   6.192   6.223   6.215   6.386   6.258   6.178   6.291   6.392   6.528   6.587   6.557
   131.25    6.245   6.265   6.189   6.138   6.244   6.318   6.312   6.309   6.386   6.500   6.647   6.652   6.555
   117.50    6.225   6.186   6.189   6.133   6.267   6.261   6.386   6.346   6.549   6.672   6.661   6.678   6.619
   103.75    6.262   6.130   6.245   6.206   6.265   6.269   6.386   6.413   6.476   6.584   6.551   6.490   6.522
    90.00    6.353   6.316   6.271   6.168   6.170   6.271   6.354   6.333   6.411   6.537   6.652   6.540   6.481
    76.25    6.356   6.296   6.304   6.280   6.320   6.404   6.457   6.347   6.431   6.536   6.646   6.530   6.534
    62.50    6.477   6.439   6.318   6.474   6.545   6.514   6.566   6.474   6.536   6.494   6.482   6.633   6.653
    48.75    6.417   6.415   6.421   6.583   6.564   6.601   6.502   6.469   6.491   6.548   6.528   6.542   6.547
    35.00    6.434   6.449   6.526   6.647   6.649   6.545   6.525   6.558   6.603   6.626   6.548   6.568   6.476
    21.25    6.587   6.559   6.593   6.646   6.682   6.646   6.568   6.496   6.557   6.623   6.646   6.575   6.467
     7.50    6.522   6.567   6.576   6.686   6.709   6.656   6.662   6.676   6.597   6.554   6.626   6.500   6.536

   Height   Standard deviation at grid points for the v component:
   172.50    5.164   5.164   5.164   5.164   5.164   5.164   5.164   5.164   5.164   5.164   5.164   5.164   5.164
   158.75    5.164   5.164   5.164   5.164   5.164   5.164   5.164   5.164   5.164   5.164   5.164   5.164   5.164
   145.00    5.164   5.164   5.164   5.164   5.164   5.164   5.164   5.164   5.164   5.164   5.164   5.164   5.164
   131.25    5.164   5.164   5.164   5.164   5.164   5.164   5.164   5.164   5.164   5.164   5.164   5.164   5.164
   117.50    5.164   5.164   5.164   5.164   5.164   5.164   5.164   5.164   5.164   5.164   5.164   5.164   5.164
   103.75    5.164   5.164   5.164   5.164   5.164   5.164   5.164   5.164   5.164   5.164   5.164   5.164   5.164
    90.00    5.164   5.164   5.164   5.164   5.164   5.164   5.164   5.164   5.164   5.164   5.164   5.164   5.164
    76.25    5.164   5.164   5.164   5.164   5.164   5.164   5.164   5.164   5.164   5.164   5.164   5.164   5.164
    62.50    5.164   5.164   5.164   5.164   5.164   5.164   5.164   5.164   5.164   5.164   5.164   5.164   5.164
    48.75    5.164   5.164   5.164   5.164   5.164   5.164   5.164   5.164   5.164   5.164   5.164   5.164   5.164
    35.00    5.164   5.164   5.164   5.164   5.164   5.164   5.164   5.164   5.164   5.164   5.164   5.164   5.164
    21.25    5.164   5.164   5.164   5.164   5.164   5.164   5.164   5.164   5.164   5.164   5.164   5.164   5.164
     7.50    5.164   5.164   5.164   5.164   5.164   5.164   5.164   5.164   5.164   5.164   5.164   5.164   5.164

   Height   Standard deviation at grid points for the w component:
   172.50    3.119   3.119   3.119   3.119   3.119   3.119   3.119   3.119   3.119   3.119   3.119   3.119   3.119
   158.75    3.119   3.119   3.119   3.119   3.119   3.119   3.119   3.119   3.119   3.119   3.119   3.119   3.119
   145.00    3.119   3.119   3.119   3.119   3.119   3.119   3.119   3.119   3.119   3.119   3.119   3.119   3.119
   131.25    3.119   3.119   3.119   3.119   3.119   3.119   3.119   3.119   3.119   3.119   3.119   3.119   3.119
   117.50    3.119   3.119   3.119   3.119   3.119   3.119   3.119   3.119   3.119   3.119   3.119   3.119   3.119
   103.75    3.119   3.119   3.119   3.119   3.119   3.119   3.119   3.119   3.119   3.119   3.119   3.119   3.119
    90.00    3.119   3.119   3.119   3.119   3.119   3.119   3.119   3.119   3.119   3.119   3.119   3.119   3.119
    76.25    3.119   3.119   3.119   3.119   3.119   3.119   3.119   3.119   3.119   3.119   3.119   3.119   3.119
    62.50    3.119   3.119   3.119   3.119   3.119   3.119   3.119   3.119   3.119   3.119   3.119   3.119   3.119
    48.75    3.119   3.119   3.119   3.119   3.119   3.119   3.119   3.119   3.119   3.119   3.119   3.119   3.119
    35.00    3.119   3.119   3.119   3.119   3.119   3.119   3.119   3.119   3.119   3.119   3.119   3.119   3.119
    21.25    3.119   3.119   3.119   3.119   3.119   3.119   3.119   3.119   3.119   3.119   3.119   3.119   3.119
     7.50    3.119   3.119   3.119   3.119   3.119   3.119   3.119   3.119   3.119   3.119   3.119   3.119   3.119

   Mean standard deviation across all grid points:
      u component:    6.445 m/s
      v component:    5.164 m/s
      w component:    3.119 m/s


U-component (X) statistics from the interpolated hub point:

   Mean =  60.0000 m/s
   TI   =  10.5900 %


Processing complete.  16.094 CPU seconds used.
