
This summary file was generated by TurbSim (v2.00.07a-bjj, 14-Jun-2016) on 23-Mar-2020 at 10:17:32.


Runtime Options:

        31  Random seed #1
        32  Random seed #2
         F  Output binary HH turbulence parameters?
         F  Output formatted turbulence parameters?
         F  Output AeroDyn HH files?
         T  Output AeroDyn FF files?
         F  Output BLADED FF files?
         F  Output tower data?
         F  Output formatted FF files?
         F  Output coherent turbulence time step file?
         T  Clockwise rotation when looking downwind?
 0 -  NONE  IEC turbulence models scaled to exact specified standard deviation


Turbine/Model Specifications:

        13  Vertical grid-point matrix dimension
        13  Horizontal grid-point matrix dimension
     0.050  Time step [seconds]
  3630.000  Analysis time [seconds]
  3630.000  Usable output time [seconds]
    90.000  Hub height [m]
   165.000  Grid height [m]
   165.000  Grid width [m]
     0.000  Vertical flow angle [degrees]
     0.000  Horizontal flow angle [degrees]


Meteorological Boundary Conditions:

    IECKAI  IEC Kaimal spectral model
         3  IEC standard: IEC 61400-3 Ed. 1: 2006
    11.000  Percent turbulence intensity, IEC 61400-3 Ed. 1: 2006
       NTM  IEC Normal Turbulence Model
       N/A  IEC Extreme Turbulence Model (ETM) "c" parameter [m/s]
       IEC  Wind profile type
    90.000  Reference height [m]
    85.000  Reference wind speed [m/s]
       N/A  Jet height [m]
     0.140  Power law exponent
     0.030  Surface roughness length [m]


Non-IEC Meteorological Boundary Conditions:

       N/A  Site latitude [degrees]
       N/A  Gradient Richardson number
       N/A  Friction or shear velocity [m/s]
       N/A  Mixing layer depth [m]
       N/A  Mean hub u'w' Reynolds stress
       N/A  Mean hub u'v' Reynolds stress
       N/A  Mean hub v'w' Reynolds stress


Spatial Coherence Models:

       IEC  u-component coherence model
      NONE  v-component coherence model
      NONE  w-component coherence model
(   12.000, 0.353E-03)  u-component coherence parameters
                   N/A  v-component coherence parameters
                   N/A  w-component coherence parameters
       N/A  Coherence exponent


You have requested that the following file(s) be generated:

   3_85.bts (AeroDyn/TurbSim full-field wind file)


Turbulence Simulation Scaling Parameter Summary:

   Turbulence model used                            =  IEC Kaimal
   Turbulence characteristic                        =  User-specified
   IEC standard                                     =  IEC 61400-3 Ed. 1: 2006
   Mean wind speed at hub height                    =   85.000 m/s
   Characteristic value of standard deviation       =    9.350 m/s
   Turbulence scale                                 =   42.000 m
   u-component integral scale                       =  340.200 m
   Coherency scale                                  =  340.200 m
   Characteristic value of hub turbulence intensity =   11.000%
   Gradient Richardson number                       =    0.000

   Wind profile type                                =  Power law on rotor disk, logarithmic elsewhere
   Power law exponent                               =    0.140
   Mean shear across rotor disk                     =    0.200 (m/s)/m
   Assumed rotor diameter                           =  165.000 m
   Surface roughness length                         =    0.030 m

   Nyquist frequency of turbulent wind field        =   10.000 Hz

   Number of time steps in the FFT                  =    72600
   Number of time steps output                      =    72600
   Number of points simulated                       =      169


Mean Flow Angles:

   Vertical   =   0.0 degrees
   Horizontal =   0.0 degrees

Mean Wind Speed Profile:

   Height    Wind Speed   Horizontal Angle  Vertical Angle  U-comp (X)   V-comp (Y)   W-comp (Z)
     (m)        (m/s)         (degrees)       (degrees)       (m/s)        (m/s)        (m/s)   
   ------    ----------   ----------------  --------------  ----------   ----------   ----------
    172.5       93.11            0.00            0.00         93.11         0.00         0.00
    158.8       92.03            0.00            0.00         92.03         0.00         0.00
    145.0       90.87            0.00            0.00         90.87         0.00         0.00
    131.2       89.61            0.00            0.00         89.61         0.00         0.00
    117.5       88.23            0.00            0.00         88.23         0.00         0.00
    103.8       86.71            0.00            0.00         86.71         0.00         0.00
     90.0       85.00            0.00            0.00         85.00         0.00         0.00
     76.2       83.05            0.00            0.00         83.05         0.00         0.00
     62.5       80.77            0.00            0.00         80.77         0.00         0.00
     48.8       78.01            0.00            0.00         78.01         0.00         0.00
     35.0       74.47            0.00            0.00         74.47         0.00         0.00
     21.2       69.45            0.00            0.00         69.45         0.00         0.00
      7.5       60.03            0.00            0.00         60.03         0.00         0.00


Harvested Random Seeds after Generation of the Random Numbers:

    705062557 Harvested seed # 1
    839551995 Harvested seed # 2


Hub-Height Simulated Turbulence Statistical Summary:

   Type of Wind        Min (m/s)   Mean (m/s)    Max (m/s)  Sigma (m/s)       TI (%)
   ----------------    ---------   ----------    ---------  -----------       ------
   Longitudinal (u)        50.93        85.00       119.87        9.003       10.591
   Lateral (v)            -32.23        -0.00        31.26        7.275        8.559
   Vertical (w)           -18.76        -0.00        18.51        4.352        5.120
   U component             50.93        85.00       119.87        9.003       10.591
   V component            -32.23        -0.00        31.26        7.275        8.559
   W component            -18.76        -0.00        18.51        4.352        5.120
   Horizontal (U&V)        51.01        85.31       120.11        8.978       10.523
   Total                   51.01        85.43       120.12        8.969       10.499

                       Min Reynolds     Mean Reynolds    Max Reynolds    Correlation
   Product             Stress (m/s)^2   Stress (m/s)^2   Stress (m/s)^2  Coefficient
   ----------------    --------------   --------------   --------------  -----------
   u'w'                   -361.859             0.009           387.860         0.000
   u'v'                   -545.675            -0.522           652.110        -0.008
   v'w'                   -297.760             0.024           285.707         0.001


   Friction Velocity (Ustar)  =      0.097 m/s
   Maximum Instantaneous TKE  =    664.850 (m/s)^2
   Maximum Instantaneous CTKE =    337.394 (m/s)^2


Grid Point Variance Summary:

   Y-coord  -82.50  -68.75  -55.00  -41.25  -27.50  -13.75    0.00   13.75   27.50   41.25   55.00   68.75   82.50

   Height   Standard deviation at grid points for the u component:
   172.50    8.925   8.921   9.002   9.136   9.227   9.140   9.136   8.911   9.006   9.082   9.159   9.308   9.161
   158.75    8.930   8.757   8.809   8.954   9.051   9.072   8.987   8.850   8.913   9.122   9.258   9.322   9.195
   145.00    8.939   8.830   8.827   8.856   8.855   9.044   8.901   8.825   8.974   9.094   9.248   9.323   9.276
   131.25    8.883   8.902   8.805   8.732   8.871   8.975   8.974   8.970   9.071   9.199   9.384   9.378   9.265
   117.50    8.863   8.800   8.811   8.741   8.899   8.894   9.050   9.029   9.284   9.414   9.378   9.406   9.326
   103.75    8.912   8.752   8.887   8.815   8.872   8.877   9.043   9.085   9.174   9.287   9.252   9.187   9.222
    90.00    9.005   8.959   8.901   8.792   8.783   8.903   9.003   8.999   9.092   9.228   9.365   9.254   9.191
    76.25    8.999   8.950   8.944   8.945   8.977   9.087   9.158   9.020   9.116   9.232   9.384   9.226   9.262
    62.50    9.164   9.130   8.972   9.166   9.248   9.213   9.260   9.160   9.238   9.219   9.180   9.371   9.389
    48.75    9.094   9.085   9.091   9.289   9.259   9.340   9.191   9.163   9.183   9.266   9.236   9.253   9.264
    35.00    9.135   9.134   9.216   9.353   9.372   9.265   9.231   9.277   9.352   9.343   9.243   9.305   9.170
    21.25    9.317   9.266   9.295   9.349   9.409   9.373   9.284   9.198   9.288   9.366   9.366   9.305   9.167
     7.50    9.218   9.266   9.274   9.405   9.430   9.384   9.416   9.432   9.334   9.272   9.362   9.223   9.261

   Height   Standard deviation at grid points for the v component:
   172.50    7.275   7.275   7.275   7.275   7.275   7.275   7.275   7.275   7.275   7.275   7.275   7.275   7.275
   158.75    7.275   7.275   7.275   7.275   7.275   7.275   7.275   7.275   7.275   7.275   7.275   7.275   7.275
   145.00    7.275   7.275   7.275   7.275   7.275   7.275   7.275   7.275   7.275   7.275   7.275   7.275   7.275
   131.25    7.275   7.275   7.275   7.275   7.275   7.275   7.275   7.275   7.275   7.275   7.275   7.275   7.275
   117.50    7.275   7.275   7.275   7.275   7.275   7.275   7.275   7.275   7.275   7.275   7.275   7.275   7.275
   103.75    7.275   7.275   7.275   7.275   7.275   7.275   7.275   7.275   7.275   7.275   7.275   7.275   7.275
    90.00    7.275   7.275   7.275   7.275   7.275   7.275   7.275   7.275   7.275   7.275   7.275   7.275   7.275
    76.25    7.275   7.275   7.275   7.275   7.275   7.275   7.275   7.275   7.275   7.275   7.275   7.275   7.275
    62.50    7.275   7.275   7.275   7.275   7.275   7.275   7.275   7.275   7.275   7.275   7.275   7.275   7.275
    48.75    7.275   7.275   7.275   7.275   7.275   7.275   7.275   7.275   7.275   7.275   7.275   7.275   7.275
    35.00    7.275   7.275   7.275   7.275   7.275   7.275   7.275   7.275   7.275   7.275   7.275   7.275   7.275
    21.25    7.275   7.275   7.275   7.275   7.275   7.275   7.275   7.275   7.275   7.275   7.275   7.275   7.275
     7.50    7.275   7.275   7.275   7.275   7.275   7.275   7.275   7.275   7.275   7.275   7.275   7.275   7.275

   Height   Standard deviation at grid points for the w component:
   172.50    4.352   4.352   4.352   4.352   4.352   4.352   4.352   4.352   4.352   4.352   4.352   4.352   4.352
   158.75    4.352   4.352   4.352   4.352   4.352   4.352   4.352   4.352   4.352   4.352   4.352   4.352   4.352
   145.00    4.352   4.352   4.352   4.352   4.352   4.352   4.352   4.352   4.352   4.352   4.352   4.352   4.352
   131.25    4.352   4.352   4.352   4.352   4.352   4.352   4.352   4.352   4.352   4.352   4.352   4.352   4.352
   117.50    4.352   4.352   4.352   4.352   4.352   4.352   4.352   4.352   4.352   4.352   4.352   4.352   4.352
   103.75    4.352   4.352   4.352   4.352   4.352   4.352   4.352   4.352   4.352   4.352   4.352   4.352   4.352
    90.00    4.352   4.352   4.352   4.352   4.352   4.352   4.352   4.352   4.352   4.352   4.352   4.352   4.352
    76.25    4.352   4.352   4.352   4.352   4.352   4.352   4.352   4.352   4.352   4.352   4.352   4.352   4.352
    62.50    4.352   4.352   4.352   4.352   4.352   4.352   4.352   4.352   4.352   4.352   4.352   4.352   4.352
    48.75    4.352   4.352   4.352   4.352   4.352   4.352   4.352   4.352   4.352   4.352   4.352   4.352   4.352
    35.00    4.352   4.352   4.352   4.352   4.352   4.352   4.352   4.352   4.352   4.352   4.352   4.352   4.352
    21.25    4.352   4.352   4.352   4.352   4.352   4.352   4.352   4.352   4.352   4.352   4.352   4.352   4.352
     7.50    4.352   4.352   4.352   4.352   4.352   4.352   4.352   4.352   4.352   4.352   4.352   4.352   4.352

   Mean standard deviation across all grid points:
      u component:    9.129 m/s
      v component:    7.275 m/s
      w component:    4.352 m/s


U-component (X) statistics from the interpolated hub point:

   Mean =  85.0000 m/s
   TI   =  10.5914 %


Processing complete.  16.234 CPU seconds used.
