
This summary file was generated by TurbSim (v2.00.07a-bjj, 14-Jun-2016) on 23-Mar-2020 at 09:53:17.


Runtime Options:

        21  Random seed #1
        22  Random seed #2
         F  Output binary HH turbulence parameters?
         F  Output formatted turbulence parameters?
         F  Output AeroDyn HH files?
         T  Output AeroDyn FF files?
         F  Output BLADED FF files?
         F  Output tower data?
         F  Output formatted FF files?
         F  Output coherent turbulence time step file?
         T  Clockwise rotation when looking downwind?
 0 -  NONE  IEC turbulence models scaled to exact specified standard deviation


Turbine/Model Specifications:

        13  Vertical grid-point matrix dimension
        13  Horizontal grid-point matrix dimension
     0.050  Time step [seconds]
  3630.000  Analysis time [seconds]
  3630.000  Usable output time [seconds]
    90.000  Hub height [m]
   165.000  Grid height [m]
   165.000  Grid width [m]
     0.000  Vertical flow angle [degrees]
     0.000  Horizontal flow angle [degrees]


Meteorological Boundary Conditions:

    IECKAI  IEC Kaimal spectral model
         3  IEC standard: IEC 61400-3 Ed. 1: 2006
    11.000  Percent turbulence intensity, IEC 61400-3 Ed. 1: 2006
       NTM  IEC Normal Turbulence Model
       N/A  IEC Extreme Turbulence Model (ETM) "c" parameter [m/s]
       IEC  Wind profile type
    90.000  Reference height [m]
    45.000  Reference wind speed [m/s]
       N/A  Jet height [m]
     0.140  Power law exponent
     0.030  Surface roughness length [m]


Non-IEC Meteorological Boundary Conditions:

       N/A  Site latitude [degrees]
       N/A  Gradient Richardson number
       N/A  Friction or shear velocity [m/s]
       N/A  Mixing layer depth [m]
       N/A  Mean hub u'w' Reynolds stress
       N/A  Mean hub u'v' Reynolds stress
       N/A  Mean hub v'w' Reynolds stress


Spatial Coherence Models:

       IEC  u-component coherence model
      NONE  v-component coherence model
      NONE  w-component coherence model
(   12.000, 0.353E-03)  u-component coherence parameters
                   N/A  v-component coherence parameters
                   N/A  w-component coherence parameters
       N/A  Coherence exponent


You have requested that the following file(s) be generated:

   2_45.bts (AeroDyn/TurbSim full-field wind file)


Turbulence Simulation Scaling Parameter Summary:

   Turbulence model used                            =  IEC Kaimal
   Turbulence characteristic                        =  User-specified
   IEC standard                                     =  IEC 61400-3 Ed. 1: 2006
   Mean wind speed at hub height                    =   45.000 m/s
   Characteristic value of standard deviation       =    4.950 m/s
   Turbulence scale                                 =   42.000 m
   u-component integral scale                       =  340.200 m
   Coherency scale                                  =  340.200 m
   Characteristic value of hub turbulence intensity =   11.000%
   Gradient Richardson number                       =    0.000

   Wind profile type                                =  Power law on rotor disk, logarithmic elsewhere
   Power law exponent                               =    0.140
   Mean shear across rotor disk                     =    0.106 (m/s)/m
   Assumed rotor diameter                           =  165.000 m
   Surface roughness length                         =    0.030 m

   Nyquist frequency of turbulent wind field        =   10.000 Hz

   Number of time steps in the FFT                  =    72600
   Number of time steps output                      =    72600
   Number of points simulated                       =      169


Mean Flow Angles:

   Vertical   =   0.0 degrees
   Horizontal =   0.0 degrees

Mean Wind Speed Profile:

   Height    Wind Speed   Horizontal Angle  Vertical Angle  U-comp (X)   V-comp (Y)   W-comp (Z)
     (m)        (m/s)         (degrees)       (degrees)       (m/s)        (m/s)        (m/s)   
   ------    ----------   ----------------  --------------  ----------   ----------   ----------
    172.5       49.29            0.00            0.00         49.29         0.00         0.00
    158.8       48.72            0.00            0.00         48.72         0.00         0.00
    145.0       48.11            0.00            0.00         48.11         0.00         0.00
    131.2       47.44            0.00            0.00         47.44         0.00         0.00
    117.5       46.71            0.00            0.00         46.71         0.00         0.00
    103.8       45.90            0.00            0.00         45.90         0.00         0.00
     90.0       45.00            0.00            0.00         45.00         0.00         0.00
     76.2       43.97            0.00            0.00         43.97         0.00         0.00
     62.5       42.76            0.00            0.00         42.76         0.00         0.00
     48.8       41.30            0.00            0.00         41.30         0.00         0.00
     35.0       39.43            0.00            0.00         39.43         0.00         0.00
     21.2       36.77            0.00            0.00         36.77         0.00         0.00
      7.5       31.78            0.00            0.00         31.78         0.00         0.00


Harvested Random Seeds after Generation of the Random Numbers:

   1447454309 Harvested seed # 1
    711409709 Harvested seed # 2


Hub-Height Simulated Turbulence Statistical Summary:

   Type of Wind        Min (m/s)   Mean (m/s)    Max (m/s)  Sigma (m/s)       TI (%)
   ----------------    ---------   ----------    ---------  -----------       ------
   Longitudinal (u)        23.58        45.00        64.29        4.944       10.986
   Lateral (v)            -15.65         0.00        16.28        3.887        8.638
   Vertical (w)           -10.28        -0.00        10.82        2.362        5.250
   U component             23.58        45.00        64.29        4.944       10.986
   V component            -15.65         0.00        16.28        3.887        8.638
   W component            -10.28        -0.00        10.82        2.362        5.250
   Horizontal (U&V)        23.71        45.17        64.29        4.935       10.925
   Total                   23.73        45.23        64.31        4.929       10.898

                       Min Reynolds     Mean Reynolds    Max Reynolds    Correlation
   Product             Stress (m/s)^2   Stress (m/s)^2   Stress (m/s)^2  Coefficient
   ----------------    --------------   --------------   --------------  -----------
   u'w'                    -91.451             0.316           115.515         0.027
   u'v'                   -147.896             0.411           162.599         0.021
   v'w'                    -79.838            -0.152            92.097        -0.017


   Friction Velocity (Ustar)  =      0.562 m/s
   Maximum Instantaneous TKE  =    232.775 (m/s)^2
   Maximum Instantaneous CTKE =     82.715 (m/s)^2


Grid Point Variance Summary:

   Y-coord  -82.50  -68.75  -55.00  -41.25  -27.50  -13.75    0.00   13.75   27.50   41.25   55.00   68.75   82.50

   Height   Standard deviation at grid points for the u component:
   172.50    5.042   4.964   4.961   4.898   4.841   4.710   4.737   4.650   4.693   4.678   4.780   4.891   4.828
   158.75    5.072   4.978   4.954   4.915   4.887   4.863   4.752   4.549   4.592   4.724   4.809   4.790   4.876
   145.00    5.074   4.946   4.882   4.870   4.831   4.812   4.777   4.681   4.697   4.743   4.770   4.868   4.886
   131.25    5.038   4.998   4.925   4.965   4.882   4.811   4.775   4.737   4.704   4.768   4.800   4.865   4.876
   117.50    5.022   5.059   5.064   4.995   4.932   4.929   4.859   4.920   4.799   4.808   4.820   4.859   4.974
   103.75    5.068   5.026   4.982   4.999   4.959   4.948   4.956   4.853   4.899   4.909   4.873   4.933   4.957
    90.00    5.024   5.118   5.011   5.027   4.984   5.002   4.944   4.903   4.919   5.003   5.000   4.996   4.899
    76.25    5.072   5.120   5.049   5.065   4.953   4.914   4.919   4.911   4.929   4.968   5.008   4.989   4.985
    62.50    5.000   5.016   5.099   5.029   4.996   4.944   4.889   4.940   4.857   4.927   4.996   5.032   4.943
    48.75    4.985   5.045   5.012   5.016   4.975   4.880   4.789   4.835   4.816   4.835   4.965   4.927   4.865
    35.00    4.938   4.961   4.962   5.067   5.043   4.908   4.818   4.859   4.807   4.841   4.915   4.765   4.783
    21.25    4.914   4.820   4.937   5.010   4.981   4.877   4.753   4.743   4.745   4.839   4.851   4.736   4.809
     7.50    4.898   4.879   4.961   5.053   4.866   4.783   4.769   4.787   4.752   4.780   4.811   4.810   4.920

   Height   Standard deviation at grid points for the v component:
   172.50    3.887   3.887   3.887   3.887   3.887   3.887   3.887   3.887   3.887   3.887   3.887   3.887   3.887
   158.75    3.887   3.887   3.887   3.887   3.887   3.887   3.887   3.887   3.887   3.887   3.887   3.887   3.887
   145.00    3.887   3.887   3.887   3.887   3.887   3.887   3.887   3.887   3.887   3.887   3.887   3.887   3.887
   131.25    3.887   3.887   3.887   3.887   3.887   3.887   3.887   3.887   3.887   3.887   3.887   3.887   3.887
   117.50    3.887   3.887   3.887   3.887   3.887   3.887   3.887   3.887   3.887   3.887   3.887   3.887   3.887
   103.75    3.887   3.887   3.887   3.887   3.887   3.887   3.887   3.887   3.887   3.887   3.887   3.887   3.887
    90.00    3.887   3.887   3.887   3.887   3.887   3.887   3.887   3.887   3.887   3.887   3.887   3.887   3.887
    76.25    3.887   3.887   3.887   3.887   3.887   3.887   3.887   3.887   3.887   3.887   3.887   3.887   3.887
    62.50    3.887   3.887   3.887   3.887   3.887   3.887   3.887   3.887   3.887   3.887   3.887   3.887   3.887
    48.75    3.887   3.887   3.887   3.887   3.887   3.887   3.887   3.887   3.887   3.887   3.887   3.887   3.887
    35.00    3.887   3.887   3.887   3.887   3.887   3.887   3.887   3.887   3.887   3.887   3.887   3.887   3.887
    21.25    3.887   3.887   3.887   3.887   3.887   3.887   3.887   3.887   3.887   3.887   3.887   3.887   3.887
     7.50    3.887   3.887   3.887   3.887   3.887   3.887   3.887   3.887   3.887   3.887   3.887   3.887   3.887

   Height   Standard deviation at grid points for the w component:
   172.50    2.362   2.362   2.362   2.362   2.362   2.362   2.362   2.362   2.362   2.362   2.362   2.362   2.362
   158.75    2.362   2.362   2.362   2.362   2.362   2.362   2.362   2.362   2.362   2.362   2.362   2.362   2.362
   145.00    2.362   2.362   2.362   2.362   2.362   2.362   2.362   2.362   2.362   2.362   2.362   2.362   2.362
   131.25    2.362   2.362   2.362   2.362   2.362   2.362   2.362   2.362   2.362   2.362   2.362   2.362   2.362
   117.50    2.362   2.362   2.362   2.362   2.362   2.362   2.362   2.362   2.362   2.362   2.362   2.362   2.362
   103.75    2.362   2.362   2.362   2.362   2.362   2.362   2.362   2.362   2.362   2.362   2.362   2.362   2.362
    90.00    2.362   2.362   2.362   2.362   2.362   2.362   2.362   2.362   2.362   2.362   2.362   2.362   2.362
    76.25    2.362   2.362   2.362   2.362   2.362   2.362   2.362   2.362   2.362   2.362   2.362   2.362   2.362
    62.50    2.362   2.362   2.362   2.362   2.362   2.362   2.362   2.362   2.362   2.362   2.362   2.362   2.362
    48.75    2.362   2.362   2.362   2.362   2.362   2.362   2.362   2.362   2.362   2.362   2.362   2.362   2.362
    35.00    2.362   2.362   2.362   2.362   2.362   2.362   2.362   2.362   2.362   2.362   2.362   2.362   2.362
    21.25    2.362   2.362   2.362   2.362   2.362   2.362   2.362   2.362   2.362   2.362   2.362   2.362   2.362
     7.50    2.362   2.362   2.362   2.362   2.362   2.362   2.362   2.362   2.362   2.362   2.362   2.362   2.362

   Mean standard deviation across all grid points:
      u component:    4.899 m/s
      v component:    3.887 m/s
      w component:    2.362 m/s


U-component (X) statistics from the interpolated hub point:

   Mean =  45.0000 m/s
   TI   =  10.9859 %


Processing complete.  16.172 CPU seconds used.
