
This summary file was generated by TurbSim (v2.00.07a-bjj, 14-Jun-2016) on 23-Mar-2020 at 10:07:29.


Runtime Options:

        21  Random seed #1
        22  Random seed #2
         F  Output binary HH turbulence parameters?
         F  Output formatted turbulence parameters?
         F  Output AeroDyn HH files?
         T  Output AeroDyn FF files?
         F  Output BLADED FF files?
         F  Output tower data?
         F  Output formatted FF files?
         F  Output coherent turbulence time step file?
         T  Clockwise rotation when looking downwind?
 0 -  NONE  IEC turbulence models scaled to exact specified standard deviation


Turbine/Model Specifications:

        13  Vertical grid-point matrix dimension
        13  Horizontal grid-point matrix dimension
     0.050  Time step [seconds]
  3630.000  Analysis time [seconds]
  3630.000  Usable output time [seconds]
    90.000  Hub height [m]
   165.000  Grid height [m]
   165.000  Grid width [m]
     0.000  Vertical flow angle [degrees]
     0.000  Horizontal flow angle [degrees]


Meteorological Boundary Conditions:

    IECKAI  IEC Kaimal spectral model
         3  IEC standard: IEC 61400-3 Ed. 1: 2006
    11.000  Percent turbulence intensity, IEC 61400-3 Ed. 1: 2006
       NTM  IEC Normal Turbulence Model
       N/A  IEC Extreme Turbulence Model (ETM) "c" parameter [m/s]
       IEC  Wind profile type
    90.000  Reference height [m]
    65.000  Reference wind speed [m/s]
       N/A  Jet height [m]
     0.140  Power law exponent
     0.030  Surface roughness length [m]


Non-IEC Meteorological Boundary Conditions:

       N/A  Site latitude [degrees]
       N/A  Gradient Richardson number
       N/A  Friction or shear velocity [m/s]
       N/A  Mixing layer depth [m]
       N/A  Mean hub u'w' Reynolds stress
       N/A  Mean hub u'v' Reynolds stress
       N/A  Mean hub v'w' Reynolds stress


Spatial Coherence Models:

       IEC  u-component coherence model
      NONE  v-component coherence model
      NONE  w-component coherence model
(   12.000, 0.353E-03)  u-component coherence parameters
                   N/A  v-component coherence parameters
                   N/A  w-component coherence parameters
       N/A  Coherence exponent


You have requested that the following file(s) be generated:

   2_65.bts (AeroDyn/TurbSim full-field wind file)


Turbulence Simulation Scaling Parameter Summary:

   Turbulence model used                            =  IEC Kaimal
   Turbulence characteristic                        =  User-specified
   IEC standard                                     =  IEC 61400-3 Ed. 1: 2006
   Mean wind speed at hub height                    =   65.000 m/s
   Characteristic value of standard deviation       =    7.150 m/s
   Turbulence scale                                 =   42.000 m
   u-component integral scale                       =  340.200 m
   Coherency scale                                  =  340.200 m
   Characteristic value of hub turbulence intensity =   11.000%
   Gradient Richardson number                       =    0.000

   Wind profile type                                =  Power law on rotor disk, logarithmic elsewhere
   Power law exponent                               =    0.140
   Mean shear across rotor disk                     =    0.153 (m/s)/m
   Assumed rotor diameter                           =  165.000 m
   Surface roughness length                         =    0.030 m

   Nyquist frequency of turbulent wind field        =   10.000 Hz

   Number of time steps in the FFT                  =    72600
   Number of time steps output                      =    72600
   Number of points simulated                       =      169


Mean Flow Angles:

   Vertical   =   0.0 degrees
   Horizontal =   0.0 degrees

Mean Wind Speed Profile:

   Height    Wind Speed   Horizontal Angle  Vertical Angle  U-comp (X)   V-comp (Y)   W-comp (Z)
     (m)        (m/s)         (degrees)       (degrees)       (m/s)        (m/s)        (m/s)   
   ------    ----------   ----------------  --------------  ----------   ----------   ----------
    172.5       71.20            0.00            0.00         71.20         0.00         0.00
    158.8       70.38            0.00            0.00         70.38         0.00         0.00
    145.0       69.49            0.00            0.00         69.49         0.00         0.00
    131.2       68.53            0.00            0.00         68.53         0.00         0.00
    117.5       67.47            0.00            0.00         67.47         0.00         0.00
    103.8       66.31            0.00            0.00         66.31         0.00         0.00
     90.0       65.00            0.00            0.00         65.00         0.00         0.00
     76.2       63.51            0.00            0.00         63.51         0.00         0.00
     62.5       61.77            0.00            0.00         61.77         0.00         0.00
     48.8       59.65            0.00            0.00         59.65         0.00         0.00
     35.0       56.95            0.00            0.00         56.95         0.00         0.00
     21.2       53.11            0.00            0.00         53.11         0.00         0.00
      7.5       45.90            0.00            0.00         45.90         0.00         0.00


Harvested Random Seeds after Generation of the Random Numbers:

   1447454309 Harvested seed # 1
    711409709 Harvested seed # 2


Hub-Height Simulated Turbulence Statistical Summary:

   Type of Wind        Min (m/s)   Mean (m/s)    Max (m/s)  Sigma (m/s)       TI (%)
   ----------------    ---------   ----------    ---------  -----------       ------
   Longitudinal (u)        34.38        65.00        94.32        7.136       10.979
   Lateral (v)            -22.24         0.00        23.30        5.588        8.597
   Vertical (w)           -14.64        -0.00        15.46        3.368        5.181
   U component             34.38        65.00        94.32        7.136       10.979
   V component            -22.24         0.00        23.30        5.588        8.597
   W component            -14.64        -0.00        15.46        3.368        5.181
   Horizontal (U&V)        34.57        65.24        94.33        7.123       10.917
   Total                   34.60        65.33        94.36        7.114       10.890

                       Min Reynolds     Mean Reynolds    Max Reynolds    Correlation
   Product             Stress (m/s)^2   Stress (m/s)^2   Stress (m/s)^2  Coefficient
   ----------------    --------------   --------------   --------------  -----------
   u'w'                   -184.257             0.577           232.608         0.024
   u'v'                   -318.305             0.478           326.424         0.012
   v'w'                   -174.610            -0.231           172.161        -0.012


   Friction Velocity (Ustar)  =      0.760 m/s
   Maximum Instantaneous TKE  =    476.205 (m/s)^2
   Maximum Instantaneous CTKE =    175.597 (m/s)^2


Grid Point Variance Summary:

   Y-coord  -82.50  -68.75  -55.00  -41.25  -27.50  -13.75    0.00   13.75   27.50   41.25   55.00   68.75   82.50

   Height   Standard deviation at grid points for the u component:
   172.50    7.266   7.197   7.194   7.095   7.031   6.889   6.919   6.830   6.893   6.863   6.947   7.073   7.011
   158.75    7.299   7.177   7.141   7.106   7.083   7.051   6.927   6.691   6.753   6.900   6.987   6.942   7.060
   145.00    7.309   7.144   7.065   7.051   7.023   6.987   6.942   6.824   6.845   6.887   6.929   7.045   7.076
   131.25    7.243   7.203   7.114   7.178   7.079   7.003   6.950   6.879   6.819   6.908   6.958   7.048   7.078
   117.50    7.235   7.273   7.283   7.205   7.146   7.138   7.039   7.096   6.940   6.973   7.004   7.057   7.188
   103.75    7.289   7.236   7.194   7.196   7.169   7.150   7.135   7.021   7.072   7.097   7.054   7.141   7.161
    90.00    7.228   7.336   7.222   7.225   7.181   7.205   7.136   7.081   7.109   7.199   7.185   7.194   7.073
    76.25    7.288   7.331   7.267   7.272   7.135   7.083   7.086   7.081   7.110   7.153   7.197   7.168   7.159
    62.50    7.203   7.211   7.331   7.234   7.185   7.119   7.053   7.110   7.012   7.090   7.178   7.218   7.105
    48.75    7.192   7.255   7.219   7.214   7.138   7.030   6.933   6.991   6.967   6.991   7.152   7.118   7.042
    35.00    7.140   7.156   7.162   7.290   7.249   7.070   6.963   7.014   6.965   7.006   7.094   6.926   6.935
    21.25    7.104   6.992   7.134   7.237   7.193   7.045   6.886   6.885   6.892   6.999   7.018   6.880   6.960
     7.50    7.062   7.056   7.168   7.285   7.051   6.949   6.928   6.958   6.893   6.927   6.979   6.973   7.089

   Height   Standard deviation at grid points for the v component:
   172.50    5.588   5.588   5.588   5.588   5.588   5.588   5.588   5.588   5.588   5.588   5.588   5.588   5.588
   158.75    5.588   5.588   5.588   5.588   5.588   5.588   5.588   5.588   5.588   5.588   5.588   5.588   5.588
   145.00    5.588   5.588   5.588   5.588   5.588   5.588   5.588   5.588   5.588   5.588   5.588   5.588   5.588
   131.25    5.588   5.588   5.588   5.588   5.588   5.588   5.588   5.588   5.588   5.588   5.588   5.588   5.588
   117.50    5.588   5.588   5.588   5.588   5.588   5.588   5.588   5.588   5.588   5.588   5.588   5.588   5.588
   103.75    5.588   5.588   5.588   5.588   5.588   5.588   5.588   5.588   5.588   5.588   5.588   5.588   5.588
    90.00    5.588   5.588   5.588   5.588   5.588   5.588   5.588   5.588   5.588   5.588   5.588   5.588   5.588
    76.25    5.588   5.588   5.588   5.588   5.588   5.588   5.588   5.588   5.588   5.588   5.588   5.588   5.588
    62.50    5.588   5.588   5.588   5.588   5.588   5.588   5.588   5.588   5.588   5.588   5.588   5.588   5.588
    48.75    5.588   5.588   5.588   5.588   5.588   5.588   5.588   5.588   5.588   5.588   5.588   5.588   5.588
    35.00    5.588   5.588   5.588   5.588   5.588   5.588   5.588   5.588   5.588   5.588   5.588   5.588   5.588
    21.25    5.588   5.588   5.588   5.588   5.588   5.588   5.588   5.588   5.588   5.588   5.588   5.588   5.588
     7.50    5.588   5.588   5.588   5.588   5.588   5.588   5.588   5.588   5.588   5.588   5.588   5.588   5.588

   Height   Standard deviation at grid points for the w component:
   172.50    3.368   3.368   3.368   3.368   3.368   3.368   3.368   3.368   3.368   3.368   3.368   3.368   3.368
   158.75    3.368   3.368   3.368   3.368   3.368   3.368   3.368   3.368   3.368   3.368   3.368   3.368   3.368
   145.00    3.368   3.368   3.368   3.368   3.368   3.368   3.368   3.368   3.368   3.368   3.368   3.368   3.368
   131.25    3.368   3.368   3.368   3.368   3.368   3.368   3.368   3.368   3.368   3.368   3.368   3.368   3.368
   117.50    3.368   3.368   3.368   3.368   3.368   3.368   3.368   3.368   3.368   3.368   3.368   3.368   3.368
   103.75    3.368   3.368   3.368   3.368   3.368   3.368   3.368   3.368   3.368   3.368   3.368   3.368   3.368
    90.00    3.368   3.368   3.368   3.368   3.368   3.368   3.368   3.368   3.368   3.368   3.368   3.368   3.368
    76.25    3.368   3.368   3.368   3.368   3.368   3.368   3.368   3.368   3.368   3.368   3.368   3.368   3.368
    62.50    3.368   3.368   3.368   3.368   3.368   3.368   3.368   3.368   3.368   3.368   3.368   3.368   3.368
    48.75    3.368   3.368   3.368   3.368   3.368   3.368   3.368   3.368   3.368   3.368   3.368   3.368   3.368
    35.00    3.368   3.368   3.368   3.368   3.368   3.368   3.368   3.368   3.368   3.368   3.368   3.368   3.368
    21.25    3.368   3.368   3.368   3.368   3.368   3.368   3.368   3.368   3.368   3.368   3.368   3.368   3.368
     7.50    3.368   3.368   3.368   3.368   3.368   3.368   3.368   3.368   3.368   3.368   3.368   3.368   3.368

   Mean standard deviation across all grid points:
      u component:    7.082 m/s
      v component:    5.588 m/s
      w component:    3.368 m/s


U-component (X) statistics from the interpolated hub point:

   Mean =  65.0000 m/s
   TI   =  10.9787 %


Processing complete.  15.906 CPU seconds used.
