
This summary file was generated by TurbSim (v2.00.07a-bjj, 14-Jun-2016) on 23-Mar-2020 at 10:07:51.


Runtime Options:

        21  Random seed #1
        22  Random seed #2
         F  Output binary HH turbulence parameters?
         F  Output formatted turbulence parameters?
         F  Output AeroDyn HH files?
         T  Output AeroDyn FF files?
         F  Output BLADED FF files?
         F  Output tower data?
         F  Output formatted FF files?
         F  Output coherent turbulence time step file?
         T  Clockwise rotation when looking downwind?
 0 -  NONE  IEC turbulence models scaled to exact specified standard deviation


Turbine/Model Specifications:

        13  Vertical grid-point matrix dimension
        13  Horizontal grid-point matrix dimension
     0.050  Time step [seconds]
  3630.000  Analysis time [seconds]
  3630.000  Usable output time [seconds]
    90.000  Hub height [m]
   165.000  Grid height [m]
   165.000  Grid width [m]
     0.000  Vertical flow angle [degrees]
     0.000  Horizontal flow angle [degrees]


Meteorological Boundary Conditions:

    IECKAI  IEC Kaimal spectral model
         3  IEC standard: IEC 61400-3 Ed. 1: 2006
    11.000  Percent turbulence intensity, IEC 61400-3 Ed. 1: 2006
       NTM  IEC Normal Turbulence Model
       N/A  IEC Extreme Turbulence Model (ETM) "c" parameter [m/s]
       IEC  Wind profile type
    90.000  Reference height [m]
    70.000  Reference wind speed [m/s]
       N/A  Jet height [m]
     0.140  Power law exponent
     0.030  Surface roughness length [m]


Non-IEC Meteorological Boundary Conditions:

       N/A  Site latitude [degrees]
       N/A  Gradient Richardson number
       N/A  Friction or shear velocity [m/s]
       N/A  Mixing layer depth [m]
       N/A  Mean hub u'w' Reynolds stress
       N/A  Mean hub u'v' Reynolds stress
       N/A  Mean hub v'w' Reynolds stress


Spatial Coherence Models:

       IEC  u-component coherence model
      NONE  v-component coherence model
      NONE  w-component coherence model
(   12.000, 0.353E-03)  u-component coherence parameters
                   N/A  v-component coherence parameters
                   N/A  w-component coherence parameters
       N/A  Coherence exponent


You have requested that the following file(s) be generated:

   2_70.bts (AeroDyn/TurbSim full-field wind file)


Turbulence Simulation Scaling Parameter Summary:

   Turbulence model used                            =  IEC Kaimal
   Turbulence characteristic                        =  User-specified
   IEC standard                                     =  IEC 61400-3 Ed. 1: 2006
   Mean wind speed at hub height                    =   70.000 m/s
   Characteristic value of standard deviation       =    7.700 m/s
   Turbulence scale                                 =   42.000 m
   u-component integral scale                       =  340.200 m
   Coherency scale                                  =  340.200 m
   Characteristic value of hub turbulence intensity =   11.000%
   Gradient Richardson number                       =    0.000

   Wind profile type                                =  Power law on rotor disk, logarithmic elsewhere
   Power law exponent                               =    0.140
   Mean shear across rotor disk                     =    0.165 (m/s)/m
   Assumed rotor diameter                           =  165.000 m
   Surface roughness length                         =    0.030 m

   Nyquist frequency of turbulent wind field        =   10.000 Hz

   Number of time steps in the FFT                  =    72600
   Number of time steps output                      =    72600
   Number of points simulated                       =      169


Mean Flow Angles:

   Vertical   =   0.0 degrees
   Horizontal =   0.0 degrees

Mean Wind Speed Profile:

   Height    Wind Speed   Horizontal Angle  Vertical Angle  U-comp (X)   V-comp (Y)   W-comp (Z)
     (m)        (m/s)         (degrees)       (degrees)       (m/s)        (m/s)        (m/s)   
   ------    ----------   ----------------  --------------  ----------   ----------   ----------
    172.5       76.68            0.00            0.00         76.68         0.00         0.00
    158.8       75.79            0.00            0.00         75.79         0.00         0.00
    145.0       74.83            0.00            0.00         74.83         0.00         0.00
    131.2       73.80            0.00            0.00         73.80         0.00         0.00
    117.5       72.66            0.00            0.00         72.66         0.00         0.00
    103.8       71.41            0.00            0.00         71.41         0.00         0.00
     90.0       70.00            0.00            0.00         70.00         0.00         0.00
     76.2       68.39            0.00            0.00         68.39         0.00         0.00
     62.5       66.52            0.00            0.00         66.52         0.00         0.00
     48.8       64.24            0.00            0.00         64.24         0.00         0.00
     35.0       61.33            0.00            0.00         61.33         0.00         0.00
     21.2       57.19            0.00            0.00         57.19         0.00         0.00
      7.5       49.43            0.00            0.00         49.43         0.00         0.00


Harvested Random Seeds after Generation of the Random Numbers:

   1447454309 Harvested seed # 1
    711409709 Harvested seed # 2


Hub-Height Simulated Turbulence Statistical Summary:

   Type of Wind        Min (m/s)   Mean (m/s)    Max (m/s)  Sigma (m/s)       TI (%)
   ----------------    ---------   ----------    ---------  -----------       ------
   Longitudinal (u)        37.14        70.00       101.77        7.680       10.972
   Lateral (v)            -23.87         0.00        25.03        6.011        8.587
   Vertical (w)           -15.71        -0.00        16.60        3.616        5.166
   U component             37.14        70.00       101.77        7.680       10.972
   V component            -23.87         0.00        25.03        6.011        8.587
   W component            -15.71        -0.00        16.60        3.616        5.166
   Horizontal (U&V)        37.34        70.26       101.78        7.665       10.910
   Total                   37.38        70.35       101.82        7.657       10.883

                       Min Reynolds     Mean Reynolds    Max Reynolds    Correlation
   Product             Stress (m/s)^2   Stress (m/s)^2   Stress (m/s)^2  Coefficient
   ----------------    --------------   --------------   --------------  -----------
   u'w'                   -211.326             0.651           267.673         0.023
   u'v'                   -368.882             0.470           374.130         0.010
   v'w'                   -204.222            -0.253           194.702        -0.012


   Friction Velocity (Ustar)  =      0.807 m/s
   Maximum Instantaneous TKE  =    548.861 (m/s)^2
   Maximum Instantaneous CTKE =    203.130 (m/s)^2


Grid Point Variance Summary:

   Y-coord  -82.50  -68.75  -55.00  -41.25  -27.50  -13.75    0.00   13.75   27.50   41.25   55.00   68.75   82.50

   Height   Standard deviation at grid points for the u component:
   172.50    7.819   7.752   7.749   7.641   7.577   7.433   7.465   7.374   7.442   7.407   7.488   7.616   7.554
   158.75    7.853   7.725   7.686   7.650   7.630   7.596   7.469   7.227   7.294   7.442   7.529   7.478   7.604
   145.00    7.864   7.691   7.610   7.594   7.569   7.530   7.482   7.358   7.380   7.422   7.468   7.587   7.621
   131.25    7.792   7.751   7.660   7.728   7.627   7.550   7.491   7.414   7.348   7.442   7.497   7.592   7.625
   117.50    7.786   7.823   7.834   7.754   7.697   7.688   7.581   7.636   7.473   7.512   7.548   7.604   7.737
   103.75    7.842   7.787   7.744   7.744   7.719   7.697   7.677   7.560   7.612   7.642   7.595   7.690   7.708
    90.00    7.776   7.887   7.773   7.771   7.729   7.752   7.680   7.621   7.652   7.743   7.726   7.740   7.613
    76.25    7.838   7.880   7.818   7.821   7.679   7.622   7.624   7.618   7.650   7.695   7.739   7.708   7.698
    62.50    7.751   7.757   7.886   7.782   7.729   7.659   7.591   7.649   7.547   7.628   7.720   7.761   7.641
    48.75    7.740   7.802   7.767   7.760   7.676   7.564   7.467   7.527   7.503   7.529   7.696   7.664   7.584
    35.00    7.688   7.701   7.708   7.842   7.797   7.609   7.497   7.550   7.503   7.546   7.637   7.465   7.471
    21.25    7.649   7.534   7.680   7.790   7.743   7.585   7.418   7.418   7.427   7.539   7.558   7.415   7.496
     7.50    7.602   7.599   7.717   7.839   7.595   7.488   7.466   7.499   7.428   7.463   7.518   7.512   7.629

   Height   Standard deviation at grid points for the v component:
   172.50    6.011   6.011   6.011   6.011   6.011   6.011   6.011   6.011   6.011   6.011   6.011   6.011   6.011
   158.75    6.011   6.011   6.011   6.011   6.011   6.011   6.011   6.011   6.011   6.011   6.011   6.011   6.011
   145.00    6.011   6.011   6.011   6.011   6.011   6.011   6.011   6.011   6.011   6.011   6.011   6.011   6.011
   131.25    6.011   6.011   6.011   6.011   6.011   6.011   6.011   6.011   6.011   6.011   6.011   6.011   6.011
   117.50    6.011   6.011   6.011   6.011   6.011   6.011   6.011   6.011   6.011   6.011   6.011   6.011   6.011
   103.75    6.011   6.011   6.011   6.011   6.011   6.011   6.011   6.011   6.011   6.011   6.011   6.011   6.011
    90.00    6.011   6.011   6.011   6.011   6.011   6.011   6.011   6.011   6.011   6.011   6.011   6.011   6.011
    76.25    6.011   6.011   6.011   6.011   6.011   6.011   6.011   6.011   6.011   6.011   6.011   6.011   6.011
    62.50    6.011   6.011   6.011   6.011   6.011   6.011   6.011   6.011   6.011   6.011   6.011   6.011   6.011
    48.75    6.011   6.011   6.011   6.011   6.011   6.011   6.011   6.011   6.011   6.011   6.011   6.011   6.011
    35.00    6.011   6.011   6.011   6.011   6.011   6.011   6.011   6.011   6.011   6.011   6.011   6.011   6.011
    21.25    6.011   6.011   6.011   6.011   6.011   6.011   6.011   6.011   6.011   6.011   6.011   6.011   6.011
     7.50    6.011   6.011   6.011   6.011   6.011   6.011   6.011   6.011   6.011   6.011   6.011   6.011   6.011

   Height   Standard deviation at grid points for the w component:
   172.50    3.616   3.616   3.616   3.616   3.616   3.616   3.616   3.616   3.616   3.616   3.616   3.616   3.616
   158.75    3.616   3.616   3.616   3.616   3.616   3.616   3.616   3.616   3.616   3.616   3.616   3.616   3.616
   145.00    3.616   3.616   3.616   3.616   3.616   3.616   3.616   3.616   3.616   3.616   3.616   3.616   3.616
   131.25    3.616   3.616   3.616   3.616   3.616   3.616   3.616   3.616   3.616   3.616   3.616   3.616   3.616
   117.50    3.616   3.616   3.616   3.616   3.616   3.616   3.616   3.616   3.616   3.616   3.616   3.616   3.616
   103.75    3.616   3.616   3.616   3.616   3.616   3.616   3.616   3.616   3.616   3.616   3.616   3.616   3.616
    90.00    3.616   3.616   3.616   3.616   3.616   3.616   3.616   3.616   3.616   3.616   3.616   3.616   3.616
    76.25    3.616   3.616   3.616   3.616   3.616   3.616   3.616   3.616   3.616   3.616   3.616   3.616   3.616
    62.50    3.616   3.616   3.616   3.616   3.616   3.616   3.616   3.616   3.616   3.616   3.616   3.616   3.616
    48.75    3.616   3.616   3.616   3.616   3.616   3.616   3.616   3.616   3.616   3.616   3.616   3.616   3.616
    35.00    3.616   3.616   3.616   3.616   3.616   3.616   3.616   3.616   3.616   3.616   3.616   3.616   3.616
    21.25    3.616   3.616   3.616   3.616   3.616   3.616   3.616   3.616   3.616   3.616   3.616   3.616   3.616
     7.50    3.616   3.616   3.616   3.616   3.616   3.616   3.616   3.616   3.616   3.616   3.616   3.616   3.616

   Mean standard deviation across all grid points:
      u component:    7.626 m/s
      v component:    6.011 m/s
      w component:    3.616 m/s


U-component (X) statistics from the interpolated hub point:

   Mean =  70.0000 m/s
   TI   =  10.9717 %


Processing complete.  16.078 CPU seconds used.
