
This summary file was generated by TurbSim (v2.00.07a-bjj, 14-Jun-2016) on 23-Mar-2020 at 10:35:49.


Runtime Options:

        51  Random seed #1
        52  Random seed #2
         F  Output binary HH turbulence parameters?
         F  Output formatted turbulence parameters?
         F  Output AeroDyn HH files?
         T  Output AeroDyn FF files?
         F  Output BLADED FF files?
         F  Output tower data?
         F  Output formatted FF files?
         F  Output coherent turbulence time step file?
         T  Clockwise rotation when looking downwind?
 0 -  NONE  IEC turbulence models scaled to exact specified standard deviation


Turbine/Model Specifications:

        13  Vertical grid-point matrix dimension
        13  Horizontal grid-point matrix dimension
     0.050  Time step [seconds]
  3630.000  Analysis time [seconds]
  3630.000  Usable output time [seconds]
    90.000  Hub height [m]
   165.000  Grid height [m]
   165.000  Grid width [m]
     0.000  Vertical flow angle [degrees]
     0.000  Horizontal flow angle [degrees]


Meteorological Boundary Conditions:

    IECKAI  IEC Kaimal spectral model
         3  IEC standard: IEC 61400-3 Ed. 1: 2006
    11.000  Percent turbulence intensity, IEC 61400-3 Ed. 1: 2006
       NTM  IEC Normal Turbulence Model
       N/A  IEC Extreme Turbulence Model (ETM) "c" parameter [m/s]
       IEC  Wind profile type
    90.000  Reference height [m]
   100.000  Reference wind speed [m/s]
       N/A  Jet height [m]
     0.140  Power law exponent
     0.030  Surface roughness length [m]


Non-IEC Meteorological Boundary Conditions:

       N/A  Site latitude [degrees]
       N/A  Gradient Richardson number
       N/A  Friction or shear velocity [m/s]
       N/A  Mixing layer depth [m]
       N/A  Mean hub u'w' Reynolds stress
       N/A  Mean hub u'v' Reynolds stress
       N/A  Mean hub v'w' Reynolds stress


Spatial Coherence Models:

       IEC  u-component coherence model
      NONE  v-component coherence model
      NONE  w-component coherence model
(   12.000, 0.353E-03)  u-component coherence parameters
                   N/A  v-component coherence parameters
                   N/A  w-component coherence parameters
       N/A  Coherence exponent


You have requested that the following file(s) be generated:

   5_100.bts (AeroDyn/TurbSim full-field wind file)


Turbulence Simulation Scaling Parameter Summary:

   Turbulence model used                            =  IEC Kaimal
   Turbulence characteristic                        =  User-specified
   IEC standard                                     =  IEC 61400-3 Ed. 1: 2006
   Mean wind speed at hub height                    =  100.000 m/s
   Characteristic value of standard deviation       =   11.000 m/s
   Turbulence scale                                 =   42.000 m
   u-component integral scale                       =  340.200 m
   Coherency scale                                  =  340.200 m
   Characteristic value of hub turbulence intensity =   11.000%
   Gradient Richardson number                       =    0.000

   Wind profile type                                =  Power law on rotor disk, logarithmic elsewhere
   Power law exponent                               =    0.140
   Mean shear across rotor disk                     =    0.236 (m/s)/m
   Assumed rotor diameter                           =  165.000 m
   Surface roughness length                         =    0.030 m

   Nyquist frequency of turbulent wind field        =   10.000 Hz

   Number of time steps in the FFT                  =    72600
   Number of time steps output                      =    72600
   Number of points simulated                       =      169


Mean Flow Angles:

   Vertical   =   0.0 degrees
   Horizontal =   0.0 degrees

Mean Wind Speed Profile:

   Height    Wind Speed   Horizontal Angle  Vertical Angle  U-comp (X)   V-comp (Y)   W-comp (Z)
     (m)        (m/s)         (degrees)       (degrees)       (m/s)        (m/s)        (m/s)   
   ------    ----------   ----------------  --------------  ----------   ----------   ----------
    172.5      109.54            0.00            0.00        109.54         0.00         0.00
    158.8      108.27            0.00            0.00        108.27         0.00         0.00
    145.0      106.90            0.00            0.00        106.90         0.00         0.00
    131.2      105.42            0.00            0.00        105.42         0.00         0.00
    117.5      103.80            0.00            0.00        103.80         0.00         0.00
    103.8      102.01            0.00            0.00        102.01         0.00         0.00
     90.0      100.00            0.00            0.00        100.00         0.00         0.00
     76.2       97.71            0.00            0.00         97.71         0.00         0.00
     62.5       95.02            0.00            0.00         95.02         0.00         0.00
     48.8       91.77            0.00            0.00         91.77         0.00         0.00
     35.0       87.61            0.00            0.00         87.61         0.00         0.00
     21.2       81.70            0.00            0.00         81.70         0.00         0.00
      7.5       70.62            0.00            0.00         70.62         0.00         0.00


Harvested Random Seeds after Generation of the Random Numbers:

   1367762616 Harvested seed # 1
   1095836567 Harvested seed # 2


Hub-Height Simulated Turbulence Statistical Summary:

   Type of Wind        Min (m/s)   Mean (m/s)    Max (m/s)  Sigma (m/s)       TI (%)
   ----------------    ---------   ----------    ---------  -----------       ------
   Longitudinal (u)        50.98       100.00       149.52       11.214       11.214
   Lateral (v)            -34.55        -0.00        35.38        8.532        8.532
   Vertical (w)           -20.52         0.00        22.66        5.077        5.077
   U component             50.98       100.00       149.52       11.214       11.214
   V component            -34.55        -0.00        35.38        8.532        8.532
   W component            -20.52         0.00        22.66        5.077        5.077
   Horizontal (U&V)        51.35       100.37       149.55       11.191       11.150
   Total                   51.54       100.50       149.65       11.178       11.123

                       Min Reynolds     Mean Reynolds    Max Reynolds    Correlation
   Product             Stress (m/s)^2   Stress (m/s)^2   Stress (m/s)^2  Coefficient
   ----------------    --------------   --------------   --------------  -----------
   u'w'                   -575.244             0.720           625.814         0.013
   u'v'                   -886.645            -0.175           839.754        -0.002
   v'w'                   -420.063            -0.064           381.200        -0.001


   Friction Velocity (Ustar)  =      0.848 m/s
   Maximum Instantaneous TKE  =   1245.030 (m/s)^2
   Maximum Instantaneous CTKE =    457.715 (m/s)^2


Grid Point Variance Summary:

   Y-coord  -82.50  -68.75  -55.00  -41.25  -27.50  -13.75    0.00   13.75   27.50   41.25   55.00   68.75   82.50

   Height   Standard deviation at grid points for the u component:
   172.50   10.851  11.026  10.967  10.842  11.019  11.106  11.206  11.119  10.961  11.025  10.938  10.891  10.976
   158.75   10.787  10.820  11.039  10.939  11.129  11.253  11.072  10.931  10.883  10.935  10.912  11.023  10.849
   145.00   10.796  10.851  10.972  11.099  11.030  11.004  11.111  11.022  11.023  11.013  10.967  11.032  11.022
   131.25   10.860  10.976  11.066  11.131  11.132  11.254  11.263  11.148  11.037  11.039  11.055  11.059  10.918
   117.50   10.869  10.919  11.023  11.148  11.161  11.288  11.078  11.103  11.131  11.098  11.089  11.015  11.078
   103.75   10.939  10.851  10.908  11.082  11.102  11.304  11.157  11.172  11.149  11.061  11.110  11.182  11.193
    90.00   10.891  10.815  11.082  11.031  11.209  11.306  11.214  11.214  11.374  11.188  11.098  11.213  11.333
    76.25   10.895  10.965  11.069  10.939  11.128  11.171  11.400  11.396  11.297  11.316  11.294  11.214  11.229
    62.50   11.031  10.991  10.969  11.058  10.869  11.081  11.202  11.307  11.368  11.327  11.219  11.112  11.308
    48.75   10.851  10.925  10.940  11.026  10.923  11.066  11.301  11.355  11.408  11.324  11.233  11.240  11.216
    35.00   10.866  10.712  10.757  10.874  10.967  11.177  11.255  11.265  11.282  11.162  11.239  11.316  11.071
    21.25   10.729  10.624  10.762  10.874  11.042  11.073  11.065  10.981  11.194  11.196  11.171  11.109  11.041
     7.50   10.830  10.688  10.745  10.842  10.949  11.013  10.959  10.939  10.864  11.075  11.098  11.115  11.065

   Height   Standard deviation at grid points for the v component:
   172.50    8.532   8.532   8.532   8.532   8.532   8.532   8.532   8.532   8.532   8.532   8.532   8.532   8.532
   158.75    8.532   8.532   8.532   8.532   8.532   8.532   8.532   8.532   8.532   8.532   8.532   8.532   8.532
   145.00    8.532   8.532   8.532   8.532   8.532   8.532   8.532   8.532   8.532   8.532   8.532   8.532   8.532
   131.25    8.532   8.532   8.532   8.532   8.532   8.532   8.532   8.532   8.532   8.532   8.532   8.532   8.532
   117.50    8.532   8.532   8.532   8.532   8.532   8.532   8.532   8.532   8.532   8.532   8.532   8.532   8.532
   103.75    8.532   8.532   8.532   8.532   8.532   8.532   8.532   8.532   8.532   8.532   8.532   8.532   8.532
    90.00    8.532   8.532   8.532   8.532   8.532   8.532   8.532   8.532   8.532   8.532   8.532   8.532   8.532
    76.25    8.532   8.532   8.532   8.532   8.532   8.532   8.532   8.532   8.532   8.532   8.532   8.532   8.532
    62.50    8.532   8.532   8.532   8.532   8.532   8.532   8.532   8.532   8.532   8.532   8.532   8.532   8.532
    48.75    8.532   8.532   8.532   8.532   8.532   8.532   8.532   8.532   8.532   8.532   8.532   8.532   8.532
    35.00    8.532   8.532   8.532   8.532   8.532   8.532   8.532   8.532   8.532   8.532   8.532   8.532   8.532
    21.25    8.532   8.532   8.532   8.532   8.532   8.532   8.532   8.532   8.532   8.532   8.532   8.532   8.532
     7.50    8.532   8.532   8.532   8.532   8.532   8.532   8.532   8.532   8.532   8.532   8.532   8.532   8.532

   Height   Standard deviation at grid points for the w component:
   172.50    5.077   5.077   5.077   5.077   5.077   5.077   5.077   5.077   5.077   5.077   5.077   5.077   5.077
   158.75    5.077   5.077   5.077   5.077   5.077   5.077   5.077   5.077   5.077   5.077   5.077   5.077   5.077
   145.00    5.077   5.077   5.077   5.077   5.077   5.077   5.077   5.077   5.077   5.077   5.077   5.077   5.077
   131.25    5.077   5.077   5.077   5.077   5.077   5.077   5.077   5.077   5.077   5.077   5.077   5.077   5.077
   117.50    5.077   5.077   5.077   5.077   5.077   5.077   5.077   5.077   5.077   5.077   5.077   5.077   5.077
   103.75    5.077   5.077   5.077   5.077   5.077   5.077   5.077   5.077   5.077   5.077   5.077   5.077   5.077
    90.00    5.077   5.077   5.077   5.077   5.077   5.077   5.077   5.077   5.077   5.077   5.077   5.077   5.077
    76.25    5.077   5.077   5.077   5.077   5.077   5.077   5.077   5.077   5.077   5.077   5.077   5.077   5.077
    62.50    5.077   5.077   5.077   5.077   5.077   5.077   5.077   5.077   5.077   5.077   5.077   5.077   5.077
    48.75    5.077   5.077   5.077   5.077   5.077   5.077   5.077   5.077   5.077   5.077   5.077   5.077   5.077
    35.00    5.077   5.077   5.077   5.077   5.077   5.077   5.077   5.077   5.077   5.077   5.077   5.077   5.077
    21.25    5.077   5.077   5.077   5.077   5.077   5.077   5.077   5.077   5.077   5.077   5.077   5.077   5.077
     7.50    5.077   5.077   5.077   5.077   5.077   5.077   5.077   5.077   5.077   5.077   5.077   5.077   5.077

   Mean standard deviation across all grid points:
      u component:   11.062 m/s
      v component:    8.532 m/s
      w component:    5.077 m/s


U-component (X) statistics from the interpolated hub point:

   Mean = 100.0000 m/s
   TI   =  11.2145 %


Processing complete.  15.812 CPU seconds used.
