
This summary file was generated by TurbSim (v2.00.07a-bjj, 14-Jun-2016) on 23-Mar-2020 at 10:28:47.


Runtime Options:

        51  Random seed #1
        52  Random seed #2
         F  Output binary HH turbulence parameters?
         F  Output formatted turbulence parameters?
         F  Output AeroDyn HH files?
         T  Output AeroDyn FF files?
         F  Output BLADED FF files?
         F  Output tower data?
         F  Output formatted FF files?
         F  Output coherent turbulence time step file?
         T  Clockwise rotation when looking downwind?
 0 -  NONE  IEC turbulence models scaled to exact specified standard deviation


Turbine/Model Specifications:

        13  Vertical grid-point matrix dimension
        13  Horizontal grid-point matrix dimension
     0.050  Time step [seconds]
  3630.000  Analysis time [seconds]
  3630.000  Usable output time [seconds]
    90.000  Hub height [m]
   165.000  Grid height [m]
   165.000  Grid width [m]
     0.000  Vertical flow angle [degrees]
     0.000  Horizontal flow angle [degrees]


Meteorological Boundary Conditions:

    IECKAI  IEC Kaimal spectral model
         3  IEC standard: IEC 61400-3 Ed. 1: 2006
    11.000  Percent turbulence intensity, IEC 61400-3 Ed. 1: 2006
       NTM  IEC Normal Turbulence Model
       N/A  IEC Extreme Turbulence Model (ETM) "c" parameter [m/s]
       IEC  Wind profile type
    90.000  Reference height [m]
    26.000  Reference wind speed [m/s]
       N/A  Jet height [m]
     0.140  Power law exponent
     0.030  Surface roughness length [m]


Non-IEC Meteorological Boundary Conditions:

       N/A  Site latitude [degrees]
       N/A  Gradient Richardson number
       N/A  Friction or shear velocity [m/s]
       N/A  Mixing layer depth [m]
       N/A  Mean hub u'w' Reynolds stress
       N/A  Mean hub u'v' Reynolds stress
       N/A  Mean hub v'w' Reynolds stress


Spatial Coherence Models:

       IEC  u-component coherence model
      NONE  v-component coherence model
      NONE  w-component coherence model
(   12.000, 0.353E-03)  u-component coherence parameters
                   N/A  v-component coherence parameters
                   N/A  w-component coherence parameters
       N/A  Coherence exponent


You have requested that the following file(s) be generated:

   5_26.bts (AeroDyn/TurbSim full-field wind file)


Turbulence Simulation Scaling Parameter Summary:

   Turbulence model used                            =  IEC Kaimal
   Turbulence characteristic                        =  User-specified
   IEC standard                                     =  IEC 61400-3 Ed. 1: 2006
   Mean wind speed at hub height                    =   26.000 m/s
   Characteristic value of standard deviation       =    2.860 m/s
   Turbulence scale                                 =   42.000 m
   u-component integral scale                       =  340.200 m
   Coherency scale                                  =  340.200 m
   Characteristic value of hub turbulence intensity =   11.000%
   Gradient Richardson number                       =    0.000

   Wind profile type                                =  Power law on rotor disk, logarithmic elsewhere
   Power law exponent                               =    0.140
   Mean shear across rotor disk                     =    0.061 (m/s)/m
   Assumed rotor diameter                           =  165.000 m
   Surface roughness length                         =    0.030 m

   Nyquist frequency of turbulent wind field        =   10.000 Hz

   Number of time steps in the FFT                  =    72600
   Number of time steps output                      =    72600
   Number of points simulated                       =      169


Mean Flow Angles:

   Vertical   =   0.0 degrees
   Horizontal =   0.0 degrees

Mean Wind Speed Profile:

   Height    Wind Speed   Horizontal Angle  Vertical Angle  U-comp (X)   V-comp (Y)   W-comp (Z)
     (m)        (m/s)         (degrees)       (degrees)       (m/s)        (m/s)        (m/s)   
   ------    ----------   ----------------  --------------  ----------   ----------   ----------
    172.5       28.48            0.00            0.00         28.48         0.00         0.00
    158.8       28.15            0.00            0.00         28.15         0.00         0.00
    145.0       27.80            0.00            0.00         27.80         0.00         0.00
    131.2       27.41            0.00            0.00         27.41         0.00         0.00
    117.5       26.99            0.00            0.00         26.99         0.00         0.00
    103.8       26.52            0.00            0.00         26.52         0.00         0.00
     90.0       26.00            0.00            0.00         26.00         0.00         0.00
     76.2       25.40            0.00            0.00         25.40         0.00         0.00
     62.5       24.71            0.00            0.00         24.71         0.00         0.00
     48.8       23.86            0.00            0.00         23.86         0.00         0.00
     35.0       22.78            0.00            0.00         22.78         0.00         0.00
     21.2       21.24            0.00            0.00         21.24         0.00         0.00
      7.5       18.36            0.00            0.00         18.36         0.00         0.00


Harvested Random Seeds after Generation of the Random Numbers:

   1367762616 Harvested seed # 1
   1095836567 Harvested seed # 2


Hub-Height Simulated Turbulence Statistical Summary:

   Type of Wind        Min (m/s)   Mean (m/s)    Max (m/s)  Sigma (m/s)       TI (%)
   ----------------    ---------   ----------    ---------  -----------       ------
   Longitudinal (u)        13.77        26.00        36.91        2.971       11.425
   Lateral (v)             -9.90        -0.00         9.37        2.257        8.681
   Vertical (w)            -5.43        -0.00         6.29        1.385        5.325
   U component             13.77        26.00        36.91        2.971       11.425
   V component             -9.90        -0.00         9.37        2.257        8.681
   W component             -5.43        -0.00         6.29        1.385        5.325
   Horizontal (U&V)        13.89        26.10        36.91        2.964       11.358
   Total                   14.09        26.14        36.95        2.960       11.327

                       Min Reynolds     Mean Reynolds    Max Reynolds    Correlation
   Product             Stress (m/s)^2   Stress (m/s)^2   Stress (m/s)^2  Coefficient
   ----------------    --------------   --------------   --------------  -----------
   u'w'                    -41.437             0.044            37.480         0.011
   u'v'                    -54.153             0.009            49.806         0.001
   v'w'                    -32.027             0.008            27.743         0.003


   Friction Velocity (Ustar)  =      0.210 m/s
   Maximum Instantaneous TKE  =     80.276 (m/s)^2
   Maximum Instantaneous CTKE =     27.264 (m/s)^2


Grid Point Variance Summary:

   Y-coord  -82.50  -68.75  -55.00  -41.25  -27.50  -13.75    0.00   13.75   27.50   41.25   55.00   68.75   82.50

   Height   Standard deviation at grid points for the u component:
   172.50    2.770   2.838   2.800   2.741   2.798   2.828   2.895   2.892   2.888   2.912   2.882   2.852   2.910
   158.75    2.783   2.759   2.866   2.808   2.883   2.909   2.832   2.798   2.839   2.861   2.845   2.910   2.839
   145.00    2.756   2.781   2.844   2.879   2.819   2.775   2.821   2.840   2.865   2.885   2.874   2.937   2.920
   131.25    2.742   2.824   2.834   2.868   2.819   2.850   2.897   2.899   2.892   2.917   2.891   2.918   2.872
   117.50    2.741   2.757   2.778   2.840   2.867   2.921   2.844   2.903   2.920   2.909   2.893   2.884   2.964
   103.75    2.806   2.792   2.795   2.852   2.882   2.960   2.919   2.949   2.937   2.942   2.901   2.942   2.946
    90.00    2.858   2.839   2.955   2.889   2.945   3.016   2.971   2.997   3.028   2.960   2.939   2.962   3.049
    76.25    2.870   2.881   2.900   2.857   2.939   3.001   3.131   3.133   3.042   3.052   3.073   3.010   2.981
    62.50    2.928   2.887   2.887   2.958   2.874   3.004   3.074   3.106   3.127   3.074   3.039   2.974   3.021
    48.75    2.869   2.883   2.921   2.967   2.947   2.998   3.112   3.101   3.108   3.088   3.073   3.074   3.027
    35.00    2.855   2.802   2.869   2.920   2.973   3.036   3.056   3.012   3.058   2.973   3.051   3.124   2.953
    21.25    2.771   2.744   2.851   2.889   2.986   2.976   2.959   2.899   2.986   3.011   3.023   3.026   3.013
     7.50    2.833   2.775   2.820   2.873   2.884   2.921   2.899   2.878   2.879   2.959   2.988   3.016   2.980

   Height   Standard deviation at grid points for the v component:
   172.50    2.257   2.257   2.257   2.257   2.257   2.257   2.257   2.257   2.257   2.257   2.257   2.257   2.257
   158.75    2.257   2.257   2.257   2.257   2.257   2.257   2.257   2.257   2.257   2.257   2.257   2.257   2.257
   145.00    2.257   2.257   2.257   2.257   2.257   2.257   2.257   2.257   2.257   2.257   2.257   2.257   2.257
   131.25    2.257   2.257   2.257   2.257   2.257   2.257   2.257   2.257   2.257   2.257   2.257   2.257   2.257
   117.50    2.257   2.257   2.257   2.257   2.257   2.257   2.257   2.257   2.257   2.257   2.257   2.257   2.257
   103.75    2.257   2.257   2.257   2.257   2.257   2.257   2.257   2.257   2.257   2.257   2.257   2.257   2.257
    90.00    2.257   2.257   2.257   2.257   2.257   2.257   2.257   2.257   2.257   2.257   2.257   2.257   2.257
    76.25    2.257   2.257   2.257   2.257   2.257   2.257   2.257   2.257   2.257   2.257   2.257   2.257   2.257
    62.50    2.257   2.257   2.257   2.257   2.257   2.257   2.257   2.257   2.257   2.257   2.257   2.257   2.257
    48.75    2.257   2.257   2.257   2.257   2.257   2.257   2.257   2.257   2.257   2.257   2.257   2.257   2.257
    35.00    2.257   2.257   2.257   2.257   2.257   2.257   2.257   2.257   2.257   2.257   2.257   2.257   2.257
    21.25    2.257   2.257   2.257   2.257   2.257   2.257   2.257   2.257   2.257   2.257   2.257   2.257   2.257
     7.50    2.257   2.257   2.257   2.257   2.257   2.257   2.257   2.257   2.257   2.257   2.257   2.257   2.257

   Height   Standard deviation at grid points for the w component:
   172.50    1.385   1.385   1.385   1.385   1.385   1.385   1.385   1.385   1.385   1.385   1.385   1.385   1.385
   158.75    1.385   1.385   1.385   1.385   1.385   1.385   1.385   1.385   1.385   1.385   1.385   1.385   1.385
   145.00    1.385   1.385   1.385   1.385   1.385   1.385   1.385   1.385   1.385   1.385   1.385   1.385   1.385
   131.25    1.385   1.385   1.385   1.385   1.385   1.385   1.385   1.385   1.385   1.385   1.385   1.385   1.385
   117.50    1.385   1.385   1.385   1.385   1.385   1.385   1.385   1.385   1.385   1.385   1.385   1.385   1.385
   103.75    1.385   1.385   1.385   1.385   1.385   1.385   1.385   1.385   1.385   1.385   1.385   1.385   1.385
    90.00    1.385   1.385   1.385   1.385   1.385   1.385   1.385   1.385   1.385   1.385   1.385   1.385   1.385
    76.25    1.385   1.385   1.385   1.385   1.385   1.385   1.385   1.385   1.385   1.385   1.385   1.385   1.385
    62.50    1.385   1.385   1.385   1.385   1.385   1.385   1.385   1.385   1.385   1.385   1.385   1.385   1.385
    48.75    1.385   1.385   1.385   1.385   1.385   1.385   1.385   1.385   1.385   1.385   1.385   1.385   1.385
    35.00    1.385   1.385   1.385   1.385   1.385   1.385   1.385   1.385   1.385   1.385   1.385   1.385   1.385
    21.25    1.385   1.385   1.385   1.385   1.385   1.385   1.385   1.385   1.385   1.385   1.385   1.385   1.385
     7.50    1.385   1.385   1.385   1.385   1.385   1.385   1.385   1.385   1.385   1.385   1.385   1.385   1.385

   Mean standard deviation across all grid points:
      u component:    2.917 m/s
      v component:    2.257 m/s
      w component:    1.385 m/s


U-component (X) statistics from the interpolated hub point:

   Mean =  26.0000 m/s
   TI   =  11.4252 %


Processing complete.  17.016 CPU seconds used.
