
This summary file was generated by TurbSim (v2.00.07a-bjj, 14-Jun-2016) on 23-Mar-2020 at 10:33:02.


Runtime Options:

        51  Random seed #1
        52  Random seed #2
         F  Output binary HH turbulence parameters?
         F  Output formatted turbulence parameters?
         F  Output AeroDyn HH files?
         T  Output AeroDyn FF files?
         F  Output BLADED FF files?
         F  Output tower data?
         F  Output formatted FF files?
         F  Output coherent turbulence time step file?
         T  Clockwise rotation when looking downwind?
 0 -  NONE  IEC turbulence models scaled to exact specified standard deviation


Turbine/Model Specifications:

        13  Vertical grid-point matrix dimension
        13  Horizontal grid-point matrix dimension
     0.050  Time step [seconds]
  3630.000  Analysis time [seconds]
  3630.000  Usable output time [seconds]
    90.000  Hub height [m]
   165.000  Grid height [m]
   165.000  Grid width [m]
     0.000  Vertical flow angle [degrees]
     0.000  Horizontal flow angle [degrees]


Meteorological Boundary Conditions:

    IECKAI  IEC Kaimal spectral model
         3  IEC standard: IEC 61400-3 Ed. 1: 2006
    11.000  Percent turbulence intensity, IEC 61400-3 Ed. 1: 2006
       NTM  IEC Normal Turbulence Model
       N/A  IEC Extreme Turbulence Model (ETM) "c" parameter [m/s]
       IEC  Wind profile type
    90.000  Reference height [m]
    60.000  Reference wind speed [m/s]
       N/A  Jet height [m]
     0.140  Power law exponent
     0.030  Surface roughness length [m]


Non-IEC Meteorological Boundary Conditions:

       N/A  Site latitude [degrees]
       N/A  Gradient Richardson number
       N/A  Friction or shear velocity [m/s]
       N/A  Mixing layer depth [m]
       N/A  Mean hub u'w' Reynolds stress
       N/A  Mean hub u'v' Reynolds stress
       N/A  Mean hub v'w' Reynolds stress


Spatial Coherence Models:

       IEC  u-component coherence model
      NONE  v-component coherence model
      NONE  w-component coherence model
(   12.000, 0.353E-03)  u-component coherence parameters
                   N/A  v-component coherence parameters
                   N/A  w-component coherence parameters
       N/A  Coherence exponent


You have requested that the following file(s) be generated:

   5_60.bts (AeroDyn/TurbSim full-field wind file)


Turbulence Simulation Scaling Parameter Summary:

   Turbulence model used                            =  IEC Kaimal
   Turbulence characteristic                        =  User-specified
   IEC standard                                     =  IEC 61400-3 Ed. 1: 2006
   Mean wind speed at hub height                    =   60.000 m/s
   Characteristic value of standard deviation       =    6.600 m/s
   Turbulence scale                                 =   42.000 m
   u-component integral scale                       =  340.200 m
   Coherency scale                                  =  340.200 m
   Characteristic value of hub turbulence intensity =   11.000%
   Gradient Richardson number                       =    0.000

   Wind profile type                                =  Power law on rotor disk, logarithmic elsewhere
   Power law exponent                               =    0.140
   Mean shear across rotor disk                     =    0.142 (m/s)/m
   Assumed rotor diameter                           =  165.000 m
   Surface roughness length                         =    0.030 m

   Nyquist frequency of turbulent wind field        =   10.000 Hz

   Number of time steps in the FFT                  =    72600
   Number of time steps output                      =    72600
   Number of points simulated                       =      169


Mean Flow Angles:

   Vertical   =   0.0 degrees
   Horizontal =   0.0 degrees

Mean Wind Speed Profile:

   Height    Wind Speed   Horizontal Angle  Vertical Angle  U-comp (X)   V-comp (Y)   W-comp (Z)
     (m)        (m/s)         (degrees)       (degrees)       (m/s)        (m/s)        (m/s)   
   ------    ----------   ----------------  --------------  ----------   ----------   ----------
    172.5       65.72            0.00            0.00         65.72         0.00         0.00
    158.8       64.96            0.00            0.00         64.96         0.00         0.00
    145.0       64.14            0.00            0.00         64.14         0.00         0.00
    131.2       63.25            0.00            0.00         63.25         0.00         0.00
    117.5       62.28            0.00            0.00         62.28         0.00         0.00
    103.8       61.21            0.00            0.00         61.21         0.00         0.00
     90.0       60.00            0.00            0.00         60.00         0.00         0.00
     76.2       58.62            0.00            0.00         58.62         0.00         0.00
     62.5       57.01            0.00            0.00         57.01         0.00         0.00
     48.8       55.06            0.00            0.00         55.06         0.00         0.00
     35.0       52.57            0.00            0.00         52.57         0.00         0.00
     21.2       49.02            0.00            0.00         49.02         0.00         0.00
      7.5       42.37            0.00            0.00         42.37         0.00         0.00


Harvested Random Seeds after Generation of the Random Numbers:

   1367762616 Harvested seed # 1
   1095836567 Harvested seed # 2


Hub-Height Simulated Turbulence Statistical Summary:

   Type of Wind        Min (m/s)   Mean (m/s)    Max (m/s)  Sigma (m/s)       TI (%)
   ----------------    ---------   ----------    ---------  -----------       ------
   Longitudinal (u)        29.37        60.00        88.96        6.816       11.360
   Lateral (v)            -21.72        -0.00        21.73        5.164        8.607
   Vertical (w)           -12.59         0.00        13.75        3.119        5.198
   U component             29.37        60.00        88.96        6.816       11.360
   V component            -21.72        -0.00        21.73        5.164        8.607
   W component            -12.59         0.00        13.75        3.119        5.198
   Horizontal (U&V)        29.65        60.22        88.97        6.802       11.295
   Total                   29.86        60.31        89.04        6.793       11.265

                       Min Reynolds     Mean Reynolds    Max Reynolds    Correlation
   Product             Stress (m/s)^2   Stress (m/s)^2   Stress (m/s)^2  Coefficient
   ----------------    --------------   --------------   --------------  -----------
   u'w'                   -228.285             0.256           231.788         0.012
   u'v'                   -285.280            -0.049           290.149        -0.001
   v'w'                   -163.123             0.006           139.521         0.000


   Friction Velocity (Ustar)  =      0.506 m/s
   Maximum Instantaneous TKE  =    483.862 (m/s)^2
   Maximum Instantaneous CTKE =    148.309 (m/s)^2


Grid Point Variance Summary:

   Y-coord  -82.50  -68.75  -55.00  -41.25  -27.50  -13.75    0.00   13.75   27.50   41.25   55.00   68.75   82.50

   Height   Standard deviation at grid points for the u component:
   172.50    6.500   6.622   6.563   6.455   6.600   6.650   6.734   6.692   6.610   6.651   6.592   6.558   6.638
   158.75    6.478   6.474   6.643   6.558   6.691   6.770   6.630   6.550   6.544   6.582   6.563   6.654   6.537
   145.00    6.466   6.504   6.610   6.692   6.611   6.575   6.654   6.621   6.635   6.646   6.603   6.672   6.663
   131.25    6.489   6.592   6.662   6.711   6.676   6.751   6.780   6.717   6.653   6.675   6.660   6.676   6.577
   117.50    6.509   6.544   6.610   6.705   6.731   6.825   6.670   6.711   6.723   6.704   6.682   6.633   6.713
   103.75    6.599   6.544   6.578   6.698   6.719   6.866   6.759   6.778   6.757   6.708   6.710   6.765   6.765
    90.00    6.596   6.543   6.750   6.689   6.809   6.902   6.816   6.830   6.921   6.787   6.716   6.788   6.902
    76.25    6.598   6.647   6.700   6.615   6.761   6.815   7.001   6.996   6.885   6.891   6.894   6.820   6.806
    62.50    6.699   6.661   6.641   6.734   6.589   6.764   6.864   6.930   6.967   6.904   6.842   6.741   6.872
    48.75    6.573   6.623   6.652   6.720   6.652   6.746   6.929   6.945   6.966   6.911   6.852   6.866   6.830
    35.00    6.564   6.462   6.525   6.622   6.690   6.820   6.872   6.839   6.879   6.765   6.855   6.942   6.731
    21.25    6.435   6.373   6.512   6.591   6.728   6.735   6.717   6.639   6.787   6.800   6.802   6.783   6.750
     7.50    6.522   6.421   6.480   6.564   6.621   6.670   6.637   6.609   6.567   6.716   6.740   6.777   6.735

   Height   Standard deviation at grid points for the v component:
   172.50    5.164   5.164   5.164   5.164   5.164   5.164   5.164   5.164   5.164   5.164   5.164   5.164   5.164
   158.75    5.164   5.164   5.164   5.164   5.164   5.164   5.164   5.164   5.164   5.164   5.164   5.164   5.164
   145.00    5.164   5.164   5.164   5.164   5.164   5.164   5.164   5.164   5.164   5.164   5.164   5.164   5.164
   131.25    5.164   5.164   5.164   5.164   5.164   5.164   5.164   5.164   5.164   5.164   5.164   5.164   5.164
   117.50    5.164   5.164   5.164   5.164   5.164   5.164   5.164   5.164   5.164   5.164   5.164   5.164   5.164
   103.75    5.164   5.164   5.164   5.164   5.164   5.164   5.164   5.164   5.164   5.164   5.164   5.164   5.164
    90.00    5.164   5.164   5.164   5.164   5.164   5.164   5.164   5.164   5.164   5.164   5.164   5.164   5.164
    76.25    5.164   5.164   5.164   5.164   5.164   5.164   5.164   5.164   5.164   5.164   5.164   5.164   5.164
    62.50    5.164   5.164   5.164   5.164   5.164   5.164   5.164   5.164   5.164   5.164   5.164   5.164   5.164
    48.75    5.164   5.164   5.164   5.164   5.164   5.164   5.164   5.164   5.164   5.164   5.164   5.164   5.164
    35.00    5.164   5.164   5.164   5.164   5.164   5.164   5.164   5.164   5.164   5.164   5.164   5.164   5.164
    21.25    5.164   5.164   5.164   5.164   5.164   5.164   5.164   5.164   5.164   5.164   5.164   5.164   5.164
     7.50    5.164   5.164   5.164   5.164   5.164   5.164   5.164   5.164   5.164   5.164   5.164   5.164   5.164

   Height   Standard deviation at grid points for the w component:
   172.50    3.119   3.119   3.119   3.119   3.119   3.119   3.119   3.119   3.119   3.119   3.119   3.119   3.119
   158.75    3.119   3.119   3.119   3.119   3.119   3.119   3.119   3.119   3.119   3.119   3.119   3.119   3.119
   145.00    3.119   3.119   3.119   3.119   3.119   3.119   3.119   3.119   3.119   3.119   3.119   3.119   3.119
   131.25    3.119   3.119   3.119   3.119   3.119   3.119   3.119   3.119   3.119   3.119   3.119   3.119   3.119
   117.50    3.119   3.119   3.119   3.119   3.119   3.119   3.119   3.119   3.119   3.119   3.119   3.119   3.119
   103.75    3.119   3.119   3.119   3.119   3.119   3.119   3.119   3.119   3.119   3.119   3.119   3.119   3.119
    90.00    3.119   3.119   3.119   3.119   3.119   3.119   3.119   3.119   3.119   3.119   3.119   3.119   3.119
    76.25    3.119   3.119   3.119   3.119   3.119   3.119   3.119   3.119   3.119   3.119   3.119   3.119   3.119
    62.50    3.119   3.119   3.119   3.119   3.119   3.119   3.119   3.119   3.119   3.119   3.119   3.119   3.119
    48.75    3.119   3.119   3.119   3.119   3.119   3.119   3.119   3.119   3.119   3.119   3.119   3.119   3.119
    35.00    3.119   3.119   3.119   3.119   3.119   3.119   3.119   3.119   3.119   3.119   3.119   3.119   3.119
    21.25    3.119   3.119   3.119   3.119   3.119   3.119   3.119   3.119   3.119   3.119   3.119   3.119   3.119
     7.50    3.119   3.119   3.119   3.119   3.119   3.119   3.119   3.119   3.119   3.119   3.119   3.119   3.119

   Mean standard deviation across all grid points:
      u component:    6.694 m/s
      v component:    5.164 m/s
      w component:    3.119 m/s


U-component (X) statistics from the interpolated hub point:

   Mean =  60.0000 m/s
   TI   =  11.3600 %


Processing complete.  16.156 CPU seconds used.
