
This summary file was generated by TurbSim (v2.00.07a-bjj, 14-Jun-2016) on 23-Mar-2020 at 10:35:08.


Runtime Options:

        51  Random seed #1
        52  Random seed #2
         F  Output binary HH turbulence parameters?
         F  Output formatted turbulence parameters?
         F  Output AeroDyn HH files?
         T  Output AeroDyn FF files?
         F  Output BLADED FF files?
         F  Output tower data?
         F  Output formatted FF files?
         F  Output coherent turbulence time step file?
         T  Clockwise rotation when looking downwind?
 0 -  NONE  IEC turbulence models scaled to exact specified standard deviation


Turbine/Model Specifications:

        13  Vertical grid-point matrix dimension
        13  Horizontal grid-point matrix dimension
     0.050  Time step [seconds]
  3630.000  Analysis time [seconds]
  3630.000  Usable output time [seconds]
    90.000  Hub height [m]
   165.000  Grid height [m]
   165.000  Grid width [m]
     0.000  Vertical flow angle [degrees]
     0.000  Horizontal flow angle [degrees]


Meteorological Boundary Conditions:

    IECKAI  IEC Kaimal spectral model
         3  IEC standard: IEC 61400-3 Ed. 1: 2006
    11.000  Percent turbulence intensity, IEC 61400-3 Ed. 1: 2006
       NTM  IEC Normal Turbulence Model
       N/A  IEC Extreme Turbulence Model (ETM) "c" parameter [m/s]
       IEC  Wind profile type
    90.000  Reference height [m]
    90.000  Reference wind speed [m/s]
       N/A  Jet height [m]
     0.140  Power law exponent
     0.030  Surface roughness length [m]


Non-IEC Meteorological Boundary Conditions:

       N/A  Site latitude [degrees]
       N/A  Gradient Richardson number
       N/A  Friction or shear velocity [m/s]
       N/A  Mixing layer depth [m]
       N/A  Mean hub u'w' Reynolds stress
       N/A  Mean hub u'v' Reynolds stress
       N/A  Mean hub v'w' Reynolds stress


Spatial Coherence Models:

       IEC  u-component coherence model
      NONE  v-component coherence model
      NONE  w-component coherence model
(   12.000, 0.353E-03)  u-component coherence parameters
                   N/A  v-component coherence parameters
                   N/A  w-component coherence parameters
       N/A  Coherence exponent


You have requested that the following file(s) be generated:

   5_90.bts (AeroDyn/TurbSim full-field wind file)


Turbulence Simulation Scaling Parameter Summary:

   Turbulence model used                            =  IEC Kaimal
   Turbulence characteristic                        =  User-specified
   IEC standard                                     =  IEC 61400-3 Ed. 1: 2006
   Mean wind speed at hub height                    =   90.000 m/s
   Characteristic value of standard deviation       =    9.900 m/s
   Turbulence scale                                 =   42.000 m
   u-component integral scale                       =  340.200 m
   Coherency scale                                  =  340.200 m
   Characteristic value of hub turbulence intensity =   11.000%
   Gradient Richardson number                       =    0.000

   Wind profile type                                =  Power law on rotor disk, logarithmic elsewhere
   Power law exponent                               =    0.140
   Mean shear across rotor disk                     =    0.212 (m/s)/m
   Assumed rotor diameter                           =  165.000 m
   Surface roughness length                         =    0.030 m

   Nyquist frequency of turbulent wind field        =   10.000 Hz

   Number of time steps in the FFT                  =    72600
   Number of time steps output                      =    72600
   Number of points simulated                       =      169


Mean Flow Angles:

   Vertical   =   0.0 degrees
   Horizontal =   0.0 degrees

Mean Wind Speed Profile:

   Height    Wind Speed   Horizontal Angle  Vertical Angle  U-comp (X)   V-comp (Y)   W-comp (Z)
     (m)        (m/s)         (degrees)       (degrees)       (m/s)        (m/s)        (m/s)   
   ------    ----------   ----------------  --------------  ----------   ----------   ----------
    172.5       98.58            0.00            0.00         98.58         0.00         0.00
    158.8       97.44            0.00            0.00         97.44         0.00         0.00
    145.0       96.21            0.00            0.00         96.21         0.00         0.00
    131.2       94.88            0.00            0.00         94.88         0.00         0.00
    117.5       93.42            0.00            0.00         93.42         0.00         0.00
    103.8       91.81            0.00            0.00         91.81         0.00         0.00
     90.0       90.00            0.00            0.00         90.00         0.00         0.00
     76.2       87.94            0.00            0.00         87.94         0.00         0.00
     62.5       85.52            0.00            0.00         85.52         0.00         0.00
     48.8       82.60            0.00            0.00         82.60         0.00         0.00
     35.0       78.85            0.00            0.00         78.85         0.00         0.00
     21.2       73.53            0.00            0.00         73.53         0.00         0.00
      7.5       63.56            0.00            0.00         63.56         0.00         0.00


Harvested Random Seeds after Generation of the Random Numbers:

   1367762616 Harvested seed # 1
   1095836567 Harvested seed # 2


Hub-Height Simulated Turbulence Statistical Summary:

   Type of Wind        Min (m/s)   Mean (m/s)    Max (m/s)  Sigma (m/s)       TI (%)
   ----------------    ---------   ----------    ---------  -----------       ------
   Longitudinal (u)        45.26        90.00       134.53       10.124       11.249
   Lateral (v)            -31.42        -0.00        32.05        7.694        8.549
   Vertical (w)           -18.58        -0.00        20.41        4.595        5.106
   U component             45.26        90.00       134.53       10.124       11.249
   V component            -31.42        -0.00        32.05        7.694        8.549
   W component            -18.58        -0.00        20.41        4.595        5.106
   Horizontal (U&V)        45.62        90.33       134.56       10.103       11.184
   Total                   45.82        90.45       134.65       10.091       11.156

                       Min Reynolds     Mean Reynolds    Max Reynolds    Correlation
   Product             Stress (m/s)^2   Stress (m/s)^2   Stress (m/s)^2  Coefficient
   ----------------    --------------   --------------   --------------  -----------
   u'w'                   -479.108             0.589           514.099         0.013
   u'v'                   -704.261            -0.152           670.063        -0.002
   v'w'                   -346.514            -0.039           309.450        -0.001


   Friction Velocity (Ustar)  =      0.768 m/s
   Maximum Instantaneous TKE  =   1025.801 (m/s)^2
   Maximum Instantaneous CTKE =    364.017 (m/s)^2


Grid Point Variance Summary:

   Y-coord  -82.50  -68.75  -55.00  -41.25  -27.50  -13.75    0.00   13.75   27.50   41.25   55.00   68.75   82.50

   Height   Standard deviation at grid points for the u component:
   172.50    9.769   9.931   9.871   9.747   9.920   9.999  10.095  10.019   9.878   9.937   9.856   9.813   9.898
   158.75    9.714   9.738   9.946   9.848  10.025  10.140   9.967   9.842   9.803   9.852   9.830   9.936   9.777
   145.00    9.718   9.770   9.888  10.004   9.930   9.903  10.005   9.928   9.932   9.928   9.881   9.946   9.937
   131.25    9.773   9.886   9.974  10.035  10.026  10.137  10.152  10.048   9.947   9.955   9.962   9.967   9.836
   117.50    9.787   9.834   9.929  10.047  10.063  10.183   9.985  10.014  10.037  10.008   9.994   9.924   9.991
   103.75    9.863   9.783   9.835   9.997  10.016  10.206  10.067  10.082  10.059   9.979  10.017  10.086  10.092
    90.00    9.824   9.753  10.007   9.953  10.118  10.217  10.124  10.125  10.269  10.095  10.008  10.114  10.233
    76.25    9.828   9.894   9.985   9.864  10.044  10.089  10.310  10.305  10.201  10.217  10.200  10.122  10.129
    62.50    9.956   9.916   9.893   9.985   9.805  10.008  10.125  10.220  10.275  10.227  10.131  10.023  10.205
    48.75    9.787   9.856   9.874   9.956   9.861   9.992  10.216  10.261  10.305  10.226  10.141  10.152  10.125
    35.00    9.795   9.653   9.703   9.817   9.904  10.094  10.167  10.165  10.188  10.068  10.149  10.229   9.992
    21.25    9.658   9.563   9.703   9.808   9.969   9.994   9.984   9.901  10.099  10.103  10.083  10.032   9.973
     7.50    9.756   9.623   9.682   9.777   9.872   9.932   9.884   9.861   9.794   9.991  10.013  10.036   9.987

   Height   Standard deviation at grid points for the v component:
   172.50    7.694   7.694   7.694   7.694   7.694   7.694   7.694   7.694   7.694   7.694   7.694   7.694   7.694
   158.75    7.694   7.694   7.694   7.694   7.694   7.694   7.694   7.694   7.694   7.694   7.694   7.694   7.694
   145.00    7.694   7.694   7.694   7.694   7.694   7.694   7.694   7.694   7.694   7.694   7.694   7.694   7.694
   131.25    7.694   7.694   7.694   7.694   7.694   7.694   7.694   7.694   7.694   7.694   7.694   7.694   7.694
   117.50    7.694   7.694   7.694   7.694   7.694   7.694   7.694   7.694   7.694   7.694   7.694   7.694   7.694
   103.75    7.694   7.694   7.694   7.694   7.694   7.694   7.694   7.694   7.694   7.694   7.694   7.694   7.694
    90.00    7.694   7.694   7.694   7.694   7.694   7.694   7.694   7.694   7.694   7.694   7.694   7.694   7.694
    76.25    7.694   7.694   7.694   7.694   7.694   7.694   7.694   7.694   7.694   7.694   7.694   7.694   7.694
    62.50    7.694   7.694   7.694   7.694   7.694   7.694   7.694   7.694   7.694   7.694   7.694   7.694   7.694
    48.75    7.694   7.694   7.694   7.694   7.694   7.694   7.694   7.694   7.694   7.694   7.694   7.694   7.694
    35.00    7.694   7.694   7.694   7.694   7.694   7.694   7.694   7.694   7.694   7.694   7.694   7.694   7.694
    21.25    7.694   7.694   7.694   7.694   7.694   7.694   7.694   7.694   7.694   7.694   7.694   7.694   7.694
     7.50    7.694   7.694   7.694   7.694   7.694   7.694   7.694   7.694   7.694   7.694   7.694   7.694   7.694

   Height   Standard deviation at grid points for the w component:
   172.50    4.595   4.595   4.595   4.595   4.595   4.595   4.595   4.595   4.595   4.595   4.595   4.595   4.595
   158.75    4.595   4.595   4.595   4.595   4.595   4.595   4.595   4.595   4.595   4.595   4.595   4.595   4.595
   145.00    4.595   4.595   4.595   4.595   4.595   4.595   4.595   4.595   4.595   4.595   4.595   4.595   4.595
   131.25    4.595   4.595   4.595   4.595   4.595   4.595   4.595   4.595   4.595   4.595   4.595   4.595   4.595
   117.50    4.595   4.595   4.595   4.595   4.595   4.595   4.595   4.595   4.595   4.595   4.595   4.595   4.595
   103.75    4.595   4.595   4.595   4.595   4.595   4.595   4.595   4.595   4.595   4.595   4.595   4.595   4.595
    90.00    4.595   4.595   4.595   4.595   4.595   4.595   4.595   4.595   4.595   4.595   4.595   4.595   4.595
    76.25    4.595   4.595   4.595   4.595   4.595   4.595   4.595   4.595   4.595   4.595   4.595   4.595   4.595
    62.50    4.595   4.595   4.595   4.595   4.595   4.595   4.595   4.595   4.595   4.595   4.595   4.595   4.595
    48.75    4.595   4.595   4.595   4.595   4.595   4.595   4.595   4.595   4.595   4.595   4.595   4.595   4.595
    35.00    4.595   4.595   4.595   4.595   4.595   4.595   4.595   4.595   4.595   4.595   4.595   4.595   4.595
    21.25    4.595   4.595   4.595   4.595   4.595   4.595   4.595   4.595   4.595   4.595   4.595   4.595   4.595
     7.50    4.595   4.595   4.595   4.595   4.595   4.595   4.595   4.595   4.595   4.595   4.595   4.595   4.595

   Mean standard deviation across all grid points:
      u component:    9.977 m/s
      v component:    7.694 m/s
      w component:    4.595 m/s


U-component (X) statistics from the interpolated hub point:

   Mean =  90.0000 m/s
   TI   =  11.2486 %


Processing complete.  16.391 CPU seconds used.
