
This summary file was generated by TurbSim (v2.00.07a-bjj, 14-Jun-2016) on 23-Mar-2020 at 09:46:10.


Runtime Options:

        11  Random seed #1
        12  Random seed #2
         F  Output binary HH turbulence parameters?
         F  Output formatted turbulence parameters?
         F  Output AeroDyn HH files?
         T  Output AeroDyn FF files?
         F  Output BLADED FF files?
         F  Output tower data?
         F  Output formatted FF files?
         F  Output coherent turbulence time step file?
         T  Clockwise rotation when looking downwind?
 0 -  NONE  IEC turbulence models scaled to exact specified standard deviation


Turbine/Model Specifications:

        13  Vertical grid-point matrix dimension
        13  Horizontal grid-point matrix dimension
     0.050  Time step [seconds]
  3630.000  Analysis time [seconds]
  3630.000  Usable output time [seconds]
    90.000  Hub height [m]
   165.000  Grid height [m]
   165.000  Grid width [m]
     0.000  Vertical flow angle [degrees]
     0.000  Horizontal flow angle [degrees]


Meteorological Boundary Conditions:

    IECKAI  IEC Kaimal spectral model
         3  IEC standard: IEC 61400-3 Ed. 1: 2006
    11.000  Percent turbulence intensity, IEC 61400-3 Ed. 1: 2006
       NTM  IEC Normal Turbulence Model
       N/A  IEC Extreme Turbulence Model (ETM) "c" parameter [m/s]
       IEC  Wind profile type
    90.000  Reference height [m]
    50.000  Reference wind speed [m/s]
       N/A  Jet height [m]
     0.140  Power law exponent
     0.030  Surface roughness length [m]


Non-IEC Meteorological Boundary Conditions:

       N/A  Site latitude [degrees]
       N/A  Gradient Richardson number
       N/A  Friction or shear velocity [m/s]
       N/A  Mixing layer depth [m]
       N/A  Mean hub u'w' Reynolds stress
       N/A  Mean hub u'v' Reynolds stress
       N/A  Mean hub v'w' Reynolds stress


Spatial Coherence Models:

       IEC  u-component coherence model
      NONE  v-component coherence model
      NONE  w-component coherence model
(   12.000, 0.353E-03)  u-component coherence parameters
                   N/A  v-component coherence parameters
                   N/A  w-component coherence parameters
       N/A  Coherence exponent


You have requested that the following file(s) be generated:

   1_50.bts (AeroDyn/TurbSim full-field wind file)


Turbulence Simulation Scaling Parameter Summary:

   Turbulence model used                            =  IEC Kaimal
   Turbulence characteristic                        =  User-specified
   IEC standard                                     =  IEC 61400-3 Ed. 1: 2006
   Mean wind speed at hub height                    =   50.000 m/s
   Characteristic value of standard deviation       =    5.500 m/s
   Turbulence scale                                 =   42.000 m
   u-component integral scale                       =  340.200 m
   Coherency scale                                  =  340.200 m
   Characteristic value of hub turbulence intensity =   11.000%
   Gradient Richardson number                       =    0.000

   Wind profile type                                =  Power law on rotor disk, logarithmic elsewhere
   Power law exponent                               =    0.140
   Mean shear across rotor disk                     =    0.118 (m/s)/m
   Assumed rotor diameter                           =  165.000 m
   Surface roughness length                         =    0.030 m

   Nyquist frequency of turbulent wind field        =   10.000 Hz

   Number of time steps in the FFT                  =    72600
   Number of time steps output                      =    72600
   Number of points simulated                       =      169


Mean Flow Angles:

   Vertical   =   0.0 degrees
   Horizontal =   0.0 degrees

Mean Wind Speed Profile:

   Height    Wind Speed   Horizontal Angle  Vertical Angle  U-comp (X)   V-comp (Y)   W-comp (Z)
     (m)        (m/s)         (degrees)       (degrees)       (m/s)        (m/s)        (m/s)   
   ------    ----------   ----------------  --------------  ----------   ----------   ----------
    172.5       54.77            0.00            0.00         54.77         0.00         0.00
    158.8       54.13            0.00            0.00         54.13         0.00         0.00
    145.0       53.45            0.00            0.00         53.45         0.00         0.00
    131.2       52.71            0.00            0.00         52.71         0.00         0.00
    117.5       51.90            0.00            0.00         51.90         0.00         0.00
    103.8       51.01            0.00            0.00         51.01         0.00         0.00
     90.0       50.00            0.00            0.00         50.00         0.00         0.00
     76.2       48.85            0.00            0.00         48.85         0.00         0.00
     62.5       47.51            0.00            0.00         47.51         0.00         0.00
     48.8       45.89            0.00            0.00         45.89         0.00         0.00
     35.0       43.81            0.00            0.00         43.81         0.00         0.00
     21.2       40.85            0.00            0.00         40.85         0.00         0.00
      7.5       35.31            0.00            0.00         35.31         0.00         0.00


Harvested Random Seeds after Generation of the Random Numbers:

     42362498 Harvested seed # 1
    583267423 Harvested seed # 2


Hub-Height Simulated Turbulence Statistical Summary:

   Type of Wind        Min (m/s)   Mean (m/s)    Max (m/s)  Sigma (m/s)       TI (%)
   ----------------    ---------   ----------    ---------  -----------       ------
   Longitudinal (u)        28.97        50.00        74.68        5.431       10.861
   Lateral (v)            -16.20        -0.00        17.63        4.314        8.627
   Vertical (w)           -11.07         0.00        10.71        2.616        5.232
   U component             28.97        50.00        74.68        5.431       10.861
   V component            -16.20        -0.00        17.63        4.314        8.627
   W component            -11.07         0.00        10.71        2.616        5.232
   Horizontal (U&V)        29.01        50.19        74.94        5.418       10.797
   Total                   29.16        50.26        74.94        5.413       10.771

                       Min Reynolds     Mean Reynolds    Max Reynolds    Correlation
   Product             Stress (m/s)^2   Stress (m/s)^2   Stress (m/s)^2  Coefficient
   ----------------    --------------   --------------   --------------  -----------
   u'w'                   -219.349            -0.086           123.732        -0.006
   u'v'                   -261.698             0.234           215.535         0.010
   v'w'                   -102.004            -0.414           133.137        -0.037


   Friction Velocity (Ustar)  =      0.293 m/s
   Maximum Instantaneous TKE  =    324.212 (m/s)^2
   Maximum Instantaneous CTKE =    131.583 (m/s)^2


Grid Point Variance Summary:

   Y-coord  -82.50  -68.75  -55.00  -41.25  -27.50  -13.75    0.00   13.75   27.50   41.25   55.00   68.75   82.50

   Height   Standard deviation at grid points for the u component:
   172.50    5.607   5.609   5.573   5.602   5.513   5.536   5.555   5.503   5.408   5.450   5.361   5.366   5.384
   158.75    5.630   5.548   5.634   5.525   5.458   5.476   5.600   5.471   5.369   5.345   5.392   5.266   5.362
   145.00    5.639   5.547   5.580   5.502   5.401   5.450   5.465   5.517   5.433   5.411   5.401   5.389   5.392
   131.25    5.606   5.603   5.491   5.529   5.335   5.372   5.424   5.440   5.331   5.385   5.366   5.332   5.424
   117.50    5.632   5.506   5.539   5.414   5.339   5.337   5.416   5.513   5.476   5.381   5.354   5.480   5.469
   103.75    5.694   5.585   5.583   5.472   5.431   5.476   5.458   5.461   5.458   5.481   5.496   5.579   5.435
    90.00    5.673   5.558   5.523   5.505   5.427   5.434   5.431   5.436   5.450   5.396   5.347   5.413   5.505
    76.25    5.682   5.652   5.557   5.449   5.434   5.404   5.404   5.370   5.369   5.335   5.381   5.510   5.421
    62.50    5.586   5.575   5.554   5.587   5.563   5.439   5.381   5.391   5.401   5.382   5.408   5.362   5.298
    48.75    5.665   5.688   5.462   5.415   5.462   5.424   5.460   5.429   5.401   5.431   5.387   5.261   5.276
    35.00    5.550   5.539   5.455   5.470   5.395   5.411   5.405   5.484   5.410   5.414   5.314   5.252   5.318
    21.25    5.502   5.466   5.383   5.413   5.403   5.371   5.393   5.375   5.436   5.432   5.356   5.336   5.345
     7.50    5.440   5.386   5.418   5.441   5.384   5.453   5.373   5.391   5.350   5.415   5.427   5.449   5.402

   Height   Standard deviation at grid points for the v component:
   172.50    4.314   4.314   4.314   4.314   4.314   4.314   4.314   4.314   4.314   4.314   4.314   4.314   4.314
   158.75    4.314   4.314   4.314   4.314   4.314   4.314   4.314   4.314   4.314   4.314   4.314   4.314   4.314
   145.00    4.314   4.314   4.314   4.314   4.314   4.314   4.314   4.314   4.314   4.314   4.314   4.314   4.314
   131.25    4.314   4.314   4.314   4.314   4.314   4.314   4.314   4.314   4.314   4.314   4.314   4.314   4.314
   117.50    4.314   4.314   4.314   4.314   4.314   4.314   4.314   4.314   4.314   4.314   4.314   4.314   4.314
   103.75    4.314   4.314   4.314   4.314   4.314   4.314   4.314   4.314   4.314   4.314   4.314   4.314   4.314
    90.00    4.314   4.314   4.314   4.314   4.314   4.314   4.314   4.314   4.314   4.314   4.314   4.314   4.314
    76.25    4.314   4.314   4.314   4.314   4.314   4.314   4.314   4.314   4.314   4.314   4.314   4.314   4.314
    62.50    4.314   4.314   4.314   4.314   4.314   4.314   4.314   4.314   4.314   4.314   4.314   4.314   4.314
    48.75    4.314   4.314   4.314   4.314   4.314   4.314   4.314   4.314   4.314   4.314   4.314   4.314   4.314
    35.00    4.314   4.314   4.314   4.314   4.314   4.314   4.314   4.314   4.314   4.314   4.314   4.314   4.314
    21.25    4.314   4.314   4.314   4.314   4.314   4.314   4.314   4.314   4.314   4.314   4.314   4.314   4.314
     7.50    4.314   4.314   4.314   4.314   4.314   4.314   4.314   4.314   4.314   4.314   4.314   4.314   4.314

   Height   Standard deviation at grid points for the w component:
   172.50    2.616   2.616   2.616   2.616   2.616   2.616   2.616   2.616   2.616   2.616   2.616   2.616   2.616
   158.75    2.616   2.616   2.616   2.616   2.616   2.616   2.616   2.616   2.616   2.616   2.616   2.616   2.616
   145.00    2.616   2.616   2.616   2.616   2.616   2.616   2.616   2.616   2.616   2.616   2.616   2.616   2.616
   131.25    2.616   2.616   2.616   2.616   2.616   2.616   2.616   2.616   2.616   2.616   2.616   2.616   2.616
   117.50    2.616   2.616   2.616   2.616   2.616   2.616   2.616   2.616   2.616   2.616   2.616   2.616   2.616
   103.75    2.616   2.616   2.616   2.616   2.616   2.616   2.616   2.616   2.616   2.616   2.616   2.616   2.616
    90.00    2.616   2.616   2.616   2.616   2.616   2.616   2.616   2.616   2.616   2.616   2.616   2.616   2.616
    76.25    2.616   2.616   2.616   2.616   2.616   2.616   2.616   2.616   2.616   2.616   2.616   2.616   2.616
    62.50    2.616   2.616   2.616   2.616   2.616   2.616   2.616   2.616   2.616   2.616   2.616   2.616   2.616
    48.75    2.616   2.616   2.616   2.616   2.616   2.616   2.616   2.616   2.616   2.616   2.616   2.616   2.616
    35.00    2.616   2.616   2.616   2.616   2.616   2.616   2.616   2.616   2.616   2.616   2.616   2.616   2.616
    21.25    2.616   2.616   2.616   2.616   2.616   2.616   2.616   2.616   2.616   2.616   2.616   2.616   2.616
     7.50    2.616   2.616   2.616   2.616   2.616   2.616   2.616   2.616   2.616   2.616   2.616   2.616   2.616

   Mean standard deviation across all grid points:
      u component:    5.453 m/s
      v component:    4.314 m/s
      w component:    2.616 m/s


U-component (X) statistics from the interpolated hub point:

   Mean =  50.0000 m/s
   TI   =  10.8610 %


Processing complete.  16.188 CPU seconds used.
