
This summary file was generated by TurbSim (v2.00.07a-bjj, 14-Jun-2016) on 23-Mar-2020 at 09:47:11.


Runtime Options:

        11  Random seed #1
        12  Random seed #2
         F  Output binary HH turbulence parameters?
         F  Output formatted turbulence parameters?
         F  Output AeroDyn HH files?
         T  Output AeroDyn FF files?
         F  Output BLADED FF files?
         F  Output tower data?
         F  Output formatted FF files?
         F  Output coherent turbulence time step file?
         T  Clockwise rotation when looking downwind?
 0 -  NONE  IEC turbulence models scaled to exact specified standard deviation


Turbine/Model Specifications:

        13  Vertical grid-point matrix dimension
        13  Horizontal grid-point matrix dimension
     0.050  Time step [seconds]
  3630.000  Analysis time [seconds]
  3630.000  Usable output time [seconds]
    90.000  Hub height [m]
   165.000  Grid height [m]
   165.000  Grid width [m]
     0.000  Vertical flow angle [degrees]
     0.000  Horizontal flow angle [degrees]


Meteorological Boundary Conditions:

    IECKAI  IEC Kaimal spectral model
         3  IEC standard: IEC 61400-3 Ed. 1: 2006
    11.000  Percent turbulence intensity, IEC 61400-3 Ed. 1: 2006
       NTM  IEC Normal Turbulence Model
       N/A  IEC Extreme Turbulence Model (ETM) "c" parameter [m/s]
       IEC  Wind profile type
    90.000  Reference height [m]
    60.000  Reference wind speed [m/s]
       N/A  Jet height [m]
     0.140  Power law exponent
     0.030  Surface roughness length [m]


Non-IEC Meteorological Boundary Conditions:

       N/A  Site latitude [degrees]
       N/A  Gradient Richardson number
       N/A  Friction or shear velocity [m/s]
       N/A  Mixing layer depth [m]
       N/A  Mean hub u'w' Reynolds stress
       N/A  Mean hub u'v' Reynolds stress
       N/A  Mean hub v'w' Reynolds stress


Spatial Coherence Models:

       IEC  u-component coherence model
      NONE  v-component coherence model
      NONE  w-component coherence model
(   12.000, 0.353E-03)  u-component coherence parameters
                   N/A  v-component coherence parameters
                   N/A  w-component coherence parameters
       N/A  Coherence exponent


You have requested that the following file(s) be generated:

   1_60.bts (AeroDyn/TurbSim full-field wind file)


Turbulence Simulation Scaling Parameter Summary:

   Turbulence model used                            =  IEC Kaimal
   Turbulence characteristic                        =  User-specified
   IEC standard                                     =  IEC 61400-3 Ed. 1: 2006
   Mean wind speed at hub height                    =   60.000 m/s
   Characteristic value of standard deviation       =    6.600 m/s
   Turbulence scale                                 =   42.000 m
   u-component integral scale                       =  340.200 m
   Coherency scale                                  =  340.200 m
   Characteristic value of hub turbulence intensity =   11.000%
   Gradient Richardson number                       =    0.000

   Wind profile type                                =  Power law on rotor disk, logarithmic elsewhere
   Power law exponent                               =    0.140
   Mean shear across rotor disk                     =    0.142 (m/s)/m
   Assumed rotor diameter                           =  165.000 m
   Surface roughness length                         =    0.030 m

   Nyquist frequency of turbulent wind field        =   10.000 Hz

   Number of time steps in the FFT                  =    72600
   Number of time steps output                      =    72600
   Number of points simulated                       =      169


Mean Flow Angles:

   Vertical   =   0.0 degrees
   Horizontal =   0.0 degrees

Mean Wind Speed Profile:

   Height    Wind Speed   Horizontal Angle  Vertical Angle  U-comp (X)   V-comp (Y)   W-comp (Z)
     (m)        (m/s)         (degrees)       (degrees)       (m/s)        (m/s)        (m/s)   
   ------    ----------   ----------------  --------------  ----------   ----------   ----------
    172.5       65.72            0.00            0.00         65.72         0.00         0.00
    158.8       64.96            0.00            0.00         64.96         0.00         0.00
    145.0       64.14            0.00            0.00         64.14         0.00         0.00
    131.2       63.25            0.00            0.00         63.25         0.00         0.00
    117.5       62.28            0.00            0.00         62.28         0.00         0.00
    103.8       61.21            0.00            0.00         61.21         0.00         0.00
     90.0       60.00            0.00            0.00         60.00         0.00         0.00
     76.2       58.62            0.00            0.00         58.62         0.00         0.00
     62.5       57.01            0.00            0.00         57.01         0.00         0.00
     48.8       55.06            0.00            0.00         55.06         0.00         0.00
     35.0       52.57            0.00            0.00         52.57         0.00         0.00
     21.2       49.02            0.00            0.00         49.02         0.00         0.00
      7.5       42.37            0.00            0.00         42.37         0.00         0.00


Harvested Random Seeds after Generation of the Random Numbers:

     42362498 Harvested seed # 1
    583267423 Harvested seed # 2


Hub-Height Simulated Turbulence Statistical Summary:

   Type of Wind        Min (m/s)   Mean (m/s)    Max (m/s)  Sigma (m/s)       TI (%)
   ----------------    ---------   ----------    ---------  -----------       ------
   Longitudinal (u)        34.63        60.00        89.14        6.526       10.877
   Lateral (v)            -19.94        -0.00        21.25        5.164        8.607
   Vertical (w)           -13.34         0.00        12.80        3.119        5.198
   U component             34.63        60.00        89.14        6.526       10.877
   V component            -19.94        -0.00        21.25        5.164        8.607
   W component            -13.34         0.00        12.80        3.119        5.198
   Horizontal (U&V)        34.67        60.22        89.43        6.511       10.811
   Total                   34.85        60.30        89.44        6.505       10.786

                       Min Reynolds     Mean Reynolds    Max Reynolds    Correlation
   Product             Stress (m/s)^2   Stress (m/s)^2   Stress (m/s)^2  Coefficient
   ----------------    --------------   --------------   --------------  -----------
   u'w'                   -301.231            -0.101           172.491        -0.005
   u'v'                   -350.387             0.299           313.664         0.009
   v'w'                   -140.313            -0.551           192.700        -0.034


   Friction Velocity (Ustar)  =      0.317 m/s
   Maximum Instantaneous TKE  =    451.195 (m/s)^2
   Maximum Instantaneous CTKE =    176.757 (m/s)^2


Grid Point Variance Summary:

   Y-coord  -82.50  -68.75  -55.00  -41.25  -27.50  -13.75    0.00   13.75   27.50   41.25   55.00   68.75   82.50

   Height   Standard deviation at grid points for the u component:
   172.50    6.722   6.722   6.680   6.710   6.598   6.620   6.643   6.585   6.482   6.535   6.434   6.448   6.467
   158.75    6.740   6.652   6.742   6.613   6.534   6.550   6.688   6.555   6.447   6.431   6.478   6.344   6.443
   145.00    6.746   6.637   6.671   6.584   6.476   6.526   6.553   6.607   6.526   6.507   6.489   6.472   6.481
   131.25    6.696   6.692   6.578   6.624   6.412   6.446   6.510   6.533   6.410   6.469   6.454   6.424   6.524
   117.50    6.729   6.590   6.624   6.495   6.419   6.416   6.499   6.612   6.576   6.471   6.452   6.581   6.573
   103.75    6.794   6.675   6.665   6.553   6.516   6.560   6.556   6.566   6.564   6.587   6.606   6.695   6.529
    90.00    6.771   6.648   6.604   6.593   6.503   6.520   6.526   6.528   6.545   6.489   6.436   6.509   6.609
    76.25    6.784   6.750   6.641   6.530   6.512   6.481   6.484   6.450   6.439   6.417   6.478   6.612   6.519
    62.50    6.678   6.663   6.636   6.680   6.645   6.520   6.457   6.463   6.474   6.461   6.501   6.438   6.381
    48.75    6.771   6.793   6.544   6.482   6.540   6.495   6.541   6.503   6.473   6.509   6.462   6.328   6.367
    35.00    6.639   6.627   6.533   6.543   6.464   6.486   6.478   6.561   6.484   6.497   6.386   6.320   6.399
    21.25    6.590   6.540   6.453   6.480   6.466   6.437   6.458   6.438   6.505   6.509   6.426   6.408   6.424
     7.50    6.522   6.460   6.492   6.512   6.442   6.510   6.421   6.447   6.406   6.481   6.503   6.540   6.490

   Height   Standard deviation at grid points for the v component:
   172.50    5.164   5.164   5.164   5.164   5.164   5.164   5.164   5.164   5.164   5.164   5.164   5.164   5.164
   158.75    5.164   5.164   5.164   5.164   5.164   5.164   5.164   5.164   5.164   5.164   5.164   5.164   5.164
   145.00    5.164   5.164   5.164   5.164   5.164   5.164   5.164   5.164   5.164   5.164   5.164   5.164   5.164
   131.25    5.164   5.164   5.164   5.164   5.164   5.164   5.164   5.164   5.164   5.164   5.164   5.164   5.164
   117.50    5.164   5.164   5.164   5.164   5.164   5.164   5.164   5.164   5.164   5.164   5.164   5.164   5.164
   103.75    5.164   5.164   5.164   5.164   5.164   5.164   5.164   5.164   5.164   5.164   5.164   5.164   5.164
    90.00    5.164   5.164   5.164   5.164   5.164   5.164   5.164   5.164   5.164   5.164   5.164   5.164   5.164
    76.25    5.164   5.164   5.164   5.164   5.164   5.164   5.164   5.164   5.164   5.164   5.164   5.164   5.164
    62.50    5.164   5.164   5.164   5.164   5.164   5.164   5.164   5.164   5.164   5.164   5.164   5.164   5.164
    48.75    5.164   5.164   5.164   5.164   5.164   5.164   5.164   5.164   5.164   5.164   5.164   5.164   5.164
    35.00    5.164   5.164   5.164   5.164   5.164   5.164   5.164   5.164   5.164   5.164   5.164   5.164   5.164
    21.25    5.164   5.164   5.164   5.164   5.164   5.164   5.164   5.164   5.164   5.164   5.164   5.164   5.164
     7.50    5.164   5.164   5.164   5.164   5.164   5.164   5.164   5.164   5.164   5.164   5.164   5.164   5.164

   Height   Standard deviation at grid points for the w component:
   172.50    3.119   3.119   3.119   3.119   3.119   3.119   3.119   3.119   3.119   3.119   3.119   3.119   3.119
   158.75    3.119   3.119   3.119   3.119   3.119   3.119   3.119   3.119   3.119   3.119   3.119   3.119   3.119
   145.00    3.119   3.119   3.119   3.119   3.119   3.119   3.119   3.119   3.119   3.119   3.119   3.119   3.119
   131.25    3.119   3.119   3.119   3.119   3.119   3.119   3.119   3.119   3.119   3.119   3.119   3.119   3.119
   117.50    3.119   3.119   3.119   3.119   3.119   3.119   3.119   3.119   3.119   3.119   3.119   3.119   3.119
   103.75    3.119   3.119   3.119   3.119   3.119   3.119   3.119   3.119   3.119   3.119   3.119   3.119   3.119
    90.00    3.119   3.119   3.119   3.119   3.119   3.119   3.119   3.119   3.119   3.119   3.119   3.119   3.119
    76.25    3.119   3.119   3.119   3.119   3.119   3.119   3.119   3.119   3.119   3.119   3.119   3.119   3.119
    62.50    3.119   3.119   3.119   3.119   3.119   3.119   3.119   3.119   3.119   3.119   3.119   3.119   3.119
    48.75    3.119   3.119   3.119   3.119   3.119   3.119   3.119   3.119   3.119   3.119   3.119   3.119   3.119
    35.00    3.119   3.119   3.119   3.119   3.119   3.119   3.119   3.119   3.119   3.119   3.119   3.119   3.119
    21.25    3.119   3.119   3.119   3.119   3.119   3.119   3.119   3.119   3.119   3.119   3.119   3.119   3.119
     7.50    3.119   3.119   3.119   3.119   3.119   3.119   3.119   3.119   3.119   3.119   3.119   3.119   3.119

   Mean standard deviation across all grid points:
      u component:    6.537 m/s
      v component:    5.164 m/s
      w component:    3.119 m/s


U-component (X) statistics from the interpolated hub point:

   Mean =  60.0000 m/s
   TI   =  10.8767 %


Processing complete.  16.094 CPU seconds used.
