
This summary file was generated by TurbSim (v2.00.07a-bjj, 14-Jun-2016) on 23-Mar-2020 at 09:48:37.


Runtime Options:

        11  Random seed #1
        12  Random seed #2
         F  Output binary HH turbulence parameters?
         F  Output formatted turbulence parameters?
         F  Output AeroDyn HH files?
         T  Output AeroDyn FF files?
         F  Output BLADED FF files?
         F  Output tower data?
         F  Output formatted FF files?
         F  Output coherent turbulence time step file?
         T  Clockwise rotation when looking downwind?
 0 -  NONE  IEC turbulence models scaled to exact specified standard deviation


Turbine/Model Specifications:

        13  Vertical grid-point matrix dimension
        13  Horizontal grid-point matrix dimension
     0.050  Time step [seconds]
  3630.000  Analysis time [seconds]
  3630.000  Usable output time [seconds]
    90.000  Hub height [m]
   165.000  Grid height [m]
   165.000  Grid width [m]
     0.000  Vertical flow angle [degrees]
     0.000  Horizontal flow angle [degrees]


Meteorological Boundary Conditions:

    IECKAI  IEC Kaimal spectral model
         3  IEC standard: IEC 61400-3 Ed. 1: 2006
    11.000  Percent turbulence intensity, IEC 61400-3 Ed. 1: 2006
       NTM  IEC Normal Turbulence Model
       N/A  IEC Extreme Turbulence Model (ETM) "c" parameter [m/s]
       IEC  Wind profile type
    90.000  Reference height [m]
    75.000  Reference wind speed [m/s]
       N/A  Jet height [m]
     0.140  Power law exponent
     0.030  Surface roughness length [m]


Non-IEC Meteorological Boundary Conditions:

       N/A  Site latitude [degrees]
       N/A  Gradient Richardson number
       N/A  Friction or shear velocity [m/s]
       N/A  Mixing layer depth [m]
       N/A  Mean hub u'w' Reynolds stress
       N/A  Mean hub u'v' Reynolds stress
       N/A  Mean hub v'w' Reynolds stress


Spatial Coherence Models:

       IEC  u-component coherence model
      NONE  v-component coherence model
      NONE  w-component coherence model
(   12.000, 0.353E-03)  u-component coherence parameters
                   N/A  v-component coherence parameters
                   N/A  w-component coherence parameters
       N/A  Coherence exponent


You have requested that the following file(s) be generated:

   1_75.bts (AeroDyn/TurbSim full-field wind file)


Turbulence Simulation Scaling Parameter Summary:

   Turbulence model used                            =  IEC Kaimal
   Turbulence characteristic                        =  User-specified
   IEC standard                                     =  IEC 61400-3 Ed. 1: 2006
   Mean wind speed at hub height                    =   75.000 m/s
   Characteristic value of standard deviation       =    8.250 m/s
   Turbulence scale                                 =   42.000 m
   u-component integral scale                       =  340.200 m
   Coherency scale                                  =  340.200 m
   Characteristic value of hub turbulence intensity =   11.000%
   Gradient Richardson number                       =    0.000

   Wind profile type                                =  Power law on rotor disk, logarithmic elsewhere
   Power law exponent                               =    0.140
   Mean shear across rotor disk                     =    0.177 (m/s)/m
   Assumed rotor diameter                           =  165.000 m
   Surface roughness length                         =    0.030 m

   Nyquist frequency of turbulent wind field        =   10.000 Hz

   Number of time steps in the FFT                  =    72600
   Number of time steps output                      =    72600
   Number of points simulated                       =      169


Mean Flow Angles:

   Vertical   =   0.0 degrees
   Horizontal =   0.0 degrees

Mean Wind Speed Profile:

   Height    Wind Speed   Horizontal Angle  Vertical Angle  U-comp (X)   V-comp (Y)   W-comp (Z)
     (m)        (m/s)         (degrees)       (degrees)       (m/s)        (m/s)        (m/s)   
   ------    ----------   ----------------  --------------  ----------   ----------   ----------
    172.5       82.15            0.00            0.00         82.15         0.00         0.00
    158.8       81.20            0.00            0.00         81.20         0.00         0.00
    145.0       80.18            0.00            0.00         80.18         0.00         0.00
    131.2       79.07            0.00            0.00         79.07         0.00         0.00
    117.5       77.85            0.00            0.00         77.85         0.00         0.00
    103.8       76.51            0.00            0.00         76.51         0.00         0.00
     90.0       75.00            0.00            0.00         75.00         0.00         0.00
     76.2       73.28            0.00            0.00         73.28         0.00         0.00
     62.5       71.27            0.00            0.00         71.27         0.00         0.00
     48.8       68.83            0.00            0.00         68.83         0.00         0.00
     35.0       65.71            0.00            0.00         65.71         0.00         0.00
     21.2       61.28            0.00            0.00         61.28         0.00         0.00
      7.5       52.96            0.00            0.00         52.96         0.00         0.00


Harvested Random Seeds after Generation of the Random Numbers:

     42362498 Harvested seed # 1
    583267423 Harvested seed # 2


Hub-Height Simulated Turbulence Statistical Summary:

   Type of Wind        Min (m/s)   Mean (m/s)    Max (m/s)  Sigma (m/s)       TI (%)
   ----------------    ---------   ----------    ---------  -----------       ------
   Longitudinal (u)        43.41        75.00       110.56        8.166       10.887
   Lateral (v)            -25.55        -0.00        26.64        6.433        8.577
   Vertical (w)           -16.68         0.00        15.89        3.862        5.150
   U component             43.41        75.00       110.56        8.166       10.887
   V component            -25.55        -0.00        26.64        6.433        8.577
   W component            -16.68         0.00        15.89        3.862        5.150
   Horizontal (U&V)        43.45        75.28       110.91        8.146       10.821
   Total                   43.68        75.38       110.91        8.138       10.796

                       Min Reynolds     Mean Reynolds    Max Reynolds    Correlation
   Product             Stress (m/s)^2   Stress (m/s)^2   Stress (m/s)^2  Coefficient
   ----------------    --------------   --------------   --------------  -----------
   u'w'                   -438.226            -0.122           256.404        -0.004
   u'v'                   -496.095             0.400           492.129         0.008
   v'w'                   -206.032            -0.779           300.812        -0.031


   Friction Velocity (Ustar)  =      0.349 m/s
   Maximum Instantaneous TKE  =    671.270 (m/s)^2
   Maximum Instantaneous CTKE =    262.245 (m/s)^2


Grid Point Variance Summary:

   Y-coord  -82.50  -68.75  -55.00  -41.25  -27.50  -13.75    0.00   13.75   27.50   41.25   55.00   68.75   82.50

   Height   Standard deviation at grid points for the u component:
   172.50    8.378   8.377   8.326   8.360   8.219   8.240   8.269   8.207   8.092   8.160   8.044   8.070   8.089
   158.75    8.391   8.296   8.391   8.235   8.144   8.157   8.315   8.180   8.067   8.058   8.106   7.961   8.059
   145.00    8.396   8.261   8.296   8.201   8.086   8.135   8.182   8.237   8.161   8.148   8.116   8.091   8.112
   131.25    8.319   8.314   8.201   8.258   8.024   8.057   8.137   8.168   8.027   8.091   8.081   8.057   8.170
   117.50    8.362   8.210   8.243   8.110   8.037   8.034   8.123   8.261   8.222   8.103   8.091   8.224   8.220
   103.75    8.436   8.302   8.281   8.170   8.141   8.182   8.198   8.220   8.219   8.240   8.261   8.359   8.163
    90.00    8.411   8.279   8.223   8.221   8.116   8.146   8.166   8.164   8.182   8.121   8.065   8.149   8.255
    76.25    8.430   8.390   8.261   8.148   8.125   8.095   8.100   8.064   8.040   8.037   8.118   8.254   8.160
    62.50    8.312   8.292   8.257   8.313   8.262   8.136   8.068   8.069   8.080   8.073   8.136   8.050   8.004
    48.75    8.421   8.443   8.167   8.080   8.153   8.097   8.156   8.108   8.078   8.122   8.073   7.927   8.001
    35.00    8.267   8.253   8.147   8.150   8.066   8.094   8.082   8.168   8.088   8.117   7.993   7.924   8.018
    21.25    8.218   8.148   8.056   8.080   8.061   8.031   8.052   8.033   8.104   8.118   8.027   8.014   8.041
     7.50    8.141   8.069   8.100   8.116   8.030   8.094   7.993   8.030   7.990   8.076   8.111   8.170   8.116

   Height   Standard deviation at grid points for the v component:
   172.50    6.433   6.433   6.433   6.433   6.433   6.433   6.433   6.433   6.433   6.433   6.433   6.433   6.433
   158.75    6.433   6.433   6.433   6.433   6.433   6.433   6.433   6.433   6.433   6.433   6.433   6.433   6.433
   145.00    6.433   6.433   6.433   6.433   6.433   6.433   6.433   6.433   6.433   6.433   6.433   6.433   6.433
   131.25    6.433   6.433   6.433   6.433   6.433   6.433   6.433   6.433   6.433   6.433   6.433   6.433   6.433
   117.50    6.433   6.433   6.433   6.433   6.433   6.433   6.433   6.433   6.433   6.433   6.433   6.433   6.433
   103.75    6.433   6.433   6.433   6.433   6.433   6.433   6.433   6.433   6.433   6.433   6.433   6.433   6.433
    90.00    6.433   6.433   6.433   6.433   6.433   6.433   6.433   6.433   6.433   6.433   6.433   6.433   6.433
    76.25    6.433   6.433   6.433   6.433   6.433   6.433   6.433   6.433   6.433   6.433   6.433   6.433   6.433
    62.50    6.433   6.433   6.433   6.433   6.433   6.433   6.433   6.433   6.433   6.433   6.433   6.433   6.433
    48.75    6.433   6.433   6.433   6.433   6.433   6.433   6.433   6.433   6.433   6.433   6.433   6.433   6.433
    35.00    6.433   6.433   6.433   6.433   6.433   6.433   6.433   6.433   6.433   6.433   6.433   6.433   6.433
    21.25    6.433   6.433   6.433   6.433   6.433   6.433   6.433   6.433   6.433   6.433   6.433   6.433   6.433
     7.50    6.433   6.433   6.433   6.433   6.433   6.433   6.433   6.433   6.433   6.433   6.433   6.433   6.433

   Height   Standard deviation at grid points for the w component:
   172.50    3.862   3.862   3.862   3.862   3.862   3.862   3.862   3.862   3.862   3.862   3.862   3.862   3.862
   158.75    3.862   3.862   3.862   3.862   3.862   3.862   3.862   3.862   3.862   3.862   3.862   3.862   3.862
   145.00    3.862   3.862   3.862   3.862   3.862   3.862   3.862   3.862   3.862   3.862   3.862   3.862   3.862
   131.25    3.862   3.862   3.862   3.862   3.862   3.862   3.862   3.862   3.862   3.862   3.862   3.862   3.862
   117.50    3.862   3.862   3.862   3.862   3.862   3.862   3.862   3.862   3.862   3.862   3.862   3.862   3.862
   103.75    3.862   3.862   3.862   3.862   3.862   3.862   3.862   3.862   3.862   3.862   3.862   3.862   3.862
    90.00    3.862   3.862   3.862   3.862   3.862   3.862   3.862   3.862   3.862   3.862   3.862   3.862   3.862
    76.25    3.862   3.862   3.862   3.862   3.862   3.862   3.862   3.862   3.862   3.862   3.862   3.862   3.862
    62.50    3.862   3.862   3.862   3.862   3.862   3.862   3.862   3.862   3.862   3.862   3.862   3.862   3.862
    48.75    3.862   3.862   3.862   3.862   3.862   3.862   3.862   3.862   3.862   3.862   3.862   3.862   3.862
    35.00    3.862   3.862   3.862   3.862   3.862   3.862   3.862   3.862   3.862   3.862   3.862   3.862   3.862
    21.25    3.862   3.862   3.862   3.862   3.862   3.862   3.862   3.862   3.862   3.862   3.862   3.862   3.862
     7.50    3.862   3.862   3.862   3.862   3.862   3.862   3.862   3.862   3.862   3.862   3.862   3.862   3.862

   Mean standard deviation across all grid points:
      u component:    8.159 m/s
      v component:    6.433 m/s
      w component:    3.862 m/s


U-component (X) statistics from the interpolated hub point:

   Mean =  75.0000 m/s
   TI   =  10.8875 %


Processing complete.  15.938 CPU seconds used.
