
This summary file was generated by TurbSim (v2.00.07a-bjj, 14-Jun-2016) on 23-Mar-2020 at 09:50:07.


Runtime Options:

        11  Random seed #1
        12  Random seed #2
         F  Output binary HH turbulence parameters?
         F  Output formatted turbulence parameters?
         F  Output AeroDyn HH files?
         T  Output AeroDyn FF files?
         F  Output BLADED FF files?
         F  Output tower data?
         F  Output formatted FF files?
         F  Output coherent turbulence time step file?
         T  Clockwise rotation when looking downwind?
 0 -  NONE  IEC turbulence models scaled to exact specified standard deviation


Turbine/Model Specifications:

        13  Vertical grid-point matrix dimension
        13  Horizontal grid-point matrix dimension
     0.050  Time step [seconds]
  3630.000  Analysis time [seconds]
  3630.000  Usable output time [seconds]
    90.000  Hub height [m]
   165.000  Grid height [m]
   165.000  Grid width [m]
     0.000  Vertical flow angle [degrees]
     0.000  Horizontal flow angle [degrees]


Meteorological Boundary Conditions:

    IECKAI  IEC Kaimal spectral model
         3  IEC standard: IEC 61400-3 Ed. 1: 2006
    11.000  Percent turbulence intensity, IEC 61400-3 Ed. 1: 2006
       NTM  IEC Normal Turbulence Model
       N/A  IEC Extreme Turbulence Model (ETM) "c" parameter [m/s]
       IEC  Wind profile type
    90.000  Reference height [m]
    90.000  Reference wind speed [m/s]
       N/A  Jet height [m]
     0.140  Power law exponent
     0.030  Surface roughness length [m]


Non-IEC Meteorological Boundary Conditions:

       N/A  Site latitude [degrees]
       N/A  Gradient Richardson number
       N/A  Friction or shear velocity [m/s]
       N/A  Mixing layer depth [m]
       N/A  Mean hub u'w' Reynolds stress
       N/A  Mean hub u'v' Reynolds stress
       N/A  Mean hub v'w' Reynolds stress


Spatial Coherence Models:

       IEC  u-component coherence model
      NONE  v-component coherence model
      NONE  w-component coherence model
(   12.000, 0.353E-03)  u-component coherence parameters
                   N/A  v-component coherence parameters
                   N/A  w-component coherence parameters
       N/A  Coherence exponent


You have requested that the following file(s) be generated:

   1_90.bts (AeroDyn/TurbSim full-field wind file)


Turbulence Simulation Scaling Parameter Summary:

   Turbulence model used                            =  IEC Kaimal
   Turbulence characteristic                        =  User-specified
   IEC standard                                     =  IEC 61400-3 Ed. 1: 2006
   Mean wind speed at hub height                    =   90.000 m/s
   Characteristic value of standard deviation       =    9.900 m/s
   Turbulence scale                                 =   42.000 m
   u-component integral scale                       =  340.200 m
   Coherency scale                                  =  340.200 m
   Characteristic value of hub turbulence intensity =   11.000%
   Gradient Richardson number                       =    0.000

   Wind profile type                                =  Power law on rotor disk, logarithmic elsewhere
   Power law exponent                               =    0.140
   Mean shear across rotor disk                     =    0.212 (m/s)/m
   Assumed rotor diameter                           =  165.000 m
   Surface roughness length                         =    0.030 m

   Nyquist frequency of turbulent wind field        =   10.000 Hz

   Number of time steps in the FFT                  =    72600
   Number of time steps output                      =    72600
   Number of points simulated                       =      169


Mean Flow Angles:

   Vertical   =   0.0 degrees
   Horizontal =   0.0 degrees

Mean Wind Speed Profile:

   Height    Wind Speed   Horizontal Angle  Vertical Angle  U-comp (X)   V-comp (Y)   W-comp (Z)
     (m)        (m/s)         (degrees)       (degrees)       (m/s)        (m/s)        (m/s)   
   ------    ----------   ----------------  --------------  ----------   ----------   ----------
    172.5       98.58            0.00            0.00         98.58         0.00         0.00
    158.8       97.44            0.00            0.00         97.44         0.00         0.00
    145.0       96.21            0.00            0.00         96.21         0.00         0.00
    131.2       94.88            0.00            0.00         94.88         0.00         0.00
    117.5       93.42            0.00            0.00         93.42         0.00         0.00
    103.8       91.81            0.00            0.00         91.81         0.00         0.00
     90.0       90.00            0.00            0.00         90.00         0.00         0.00
     76.2       87.94            0.00            0.00         87.94         0.00         0.00
     62.5       85.52            0.00            0.00         85.52         0.00         0.00
     48.8       82.60            0.00            0.00         82.60         0.00         0.00
     35.0       78.85            0.00            0.00         78.85         0.00         0.00
     21.2       73.53            0.00            0.00         73.53         0.00         0.00
      7.5       63.56            0.00            0.00         63.56         0.00         0.00


Harvested Random Seeds after Generation of the Random Numbers:

     42362498 Harvested seed # 1
    583267423 Harvested seed # 2


Hub-Height Simulated Turbulence Statistical Summary:

   Type of Wind        Min (m/s)   Mean (m/s)    Max (m/s)  Sigma (m/s)       TI (%)
   ----------------    ---------   ----------    ---------  -----------       ------
   Longitudinal (u)        52.52        90.00       131.75        9.801       10.890
   Lateral (v)            -31.13        -0.00        31.95        7.694        8.549
   Vertical (w)           -19.93         0.00        18.92        4.595        5.106
   U component             52.52        90.00       131.75        9.801       10.890
   V component            -31.13        -0.00        31.95        7.694        8.549
   W component            -19.93         0.00        18.92        4.595        5.106
   Horizontal (U&V)        52.55        90.33       132.15        9.777       10.823
   Total                   52.83        90.45       132.15        9.767       10.799

                       Min Reynolds     Mean Reynolds    Max Reynolds    Correlation
   Product             Stress (m/s)^2   Stress (m/s)^2   Stress (m/s)^2  Coefficient
   ----------------    --------------   --------------   --------------  -----------
   u'w'                   -589.951            -0.144           367.803        -0.003
   u'v'                   -655.882             0.503           707.257         0.007
   v'w'                   -296.416            -1.029           430.002        -0.029


   Friction Velocity (Ustar)  =      0.379 m/s
   Maximum Instantaneous TKE  =    924.565 (m/s)^2
   Maximum Instantaneous CTKE =    375.541 (m/s)^2


Grid Point Variance Summary:

   Y-coord  -82.50  -68.75  -55.00  -41.25  -27.50  -13.75    0.00   13.75   27.50   41.25   55.00   68.75   82.50

   Height   Standard deviation at grid points for the u component:
   172.50   10.019  10.018   9.959   9.997   9.833   9.854   9.890   9.827   9.702   9.782   9.655   9.688   9.708
   158.75   10.027   9.928  10.026   9.847   9.750   9.760   9.935   9.804   9.687   9.681   9.730   9.575   9.672
   145.00   10.034   9.874   9.912   9.811   9.693   9.740   9.807   9.861   9.791   9.784   9.738   9.704   9.738
   131.25    9.931   9.926   9.814   9.884   9.634   9.667   9.761   9.797   9.643   9.708   9.701   9.684   9.811
   117.50    9.986   9.824   9.858   9.719   9.652   9.652   9.747   9.906   9.863   9.730   9.722   9.859   9.859
   103.75   10.070   9.922   9.891   9.783   9.765   9.801   9.834   9.868   9.869   9.886   9.907  10.012   9.789
    90.00   10.042   9.903   9.837   9.844   9.729   9.767   9.801   9.798   9.816   9.748   9.692   9.784   9.891
    76.25   10.067  10.022   9.875   9.761   9.733   9.704   9.713   9.674   9.639   9.655   9.753   9.887   9.795
    62.50    9.942   9.916   9.876   9.939   9.871   9.746   9.675   9.673   9.684   9.680   9.764   9.658   9.625
    48.75   10.061  10.085   9.790   9.675   9.761   9.695   9.765   9.709   9.679   9.731   9.681   9.526   9.630
    35.00    9.889   9.874   9.759   9.755   9.667   9.697   9.681   9.769   9.685   9.731   9.601   9.530   9.631
    21.25    9.841   9.754   9.657   9.679   9.656   9.621   9.643   9.626   9.700   9.723   9.625   9.618   9.655
     7.50    9.756   9.678   9.705   9.719   9.618   9.676   9.564   9.610   9.573   9.667   9.713   9.794   9.734

   Height   Standard deviation at grid points for the v component:
   172.50    7.694   7.694   7.694   7.694   7.694   7.694   7.694   7.694   7.694   7.694   7.694   7.694   7.694
   158.75    7.694   7.694   7.694   7.694   7.694   7.694   7.694   7.694   7.694   7.694   7.694   7.694   7.694
   145.00    7.694   7.694   7.694   7.694   7.694   7.694   7.694   7.694   7.694   7.694   7.694   7.694   7.694
   131.25    7.694   7.694   7.694   7.694   7.694   7.694   7.694   7.694   7.694   7.694   7.694   7.694   7.694
   117.50    7.694   7.694   7.694   7.694   7.694   7.694   7.694   7.694   7.694   7.694   7.694   7.694   7.694
   103.75    7.694   7.694   7.694   7.694   7.694   7.694   7.694   7.694   7.694   7.694   7.694   7.694   7.694
    90.00    7.694   7.694   7.694   7.694   7.694   7.694   7.694   7.694   7.694   7.694   7.694   7.694   7.694
    76.25    7.694   7.694   7.694   7.694   7.694   7.694   7.694   7.694   7.694   7.694   7.694   7.694   7.694
    62.50    7.694   7.694   7.694   7.694   7.694   7.694   7.694   7.694   7.694   7.694   7.694   7.694   7.694
    48.75    7.694   7.694   7.694   7.694   7.694   7.694   7.694   7.694   7.694   7.694   7.694   7.694   7.694
    35.00    7.694   7.694   7.694   7.694   7.694   7.694   7.694   7.694   7.694   7.694   7.694   7.694   7.694
    21.25    7.694   7.694   7.694   7.694   7.694   7.694   7.694   7.694   7.694   7.694   7.694   7.694   7.694
     7.50    7.694   7.694   7.694   7.694   7.694   7.694   7.694   7.694   7.694   7.694   7.694   7.694   7.694

   Height   Standard deviation at grid points for the w component:
   172.50    4.595   4.595   4.595   4.595   4.595   4.595   4.595   4.595   4.595   4.595   4.595   4.595   4.595
   158.75    4.595   4.595   4.595   4.595   4.595   4.595   4.595   4.595   4.595   4.595   4.595   4.595   4.595
   145.00    4.595   4.595   4.595   4.595   4.595   4.595   4.595   4.595   4.595   4.595   4.595   4.595   4.595
   131.25    4.595   4.595   4.595   4.595   4.595   4.595   4.595   4.595   4.595   4.595   4.595   4.595   4.595
   117.50    4.595   4.595   4.595   4.595   4.595   4.595   4.595   4.595   4.595   4.595   4.595   4.595   4.595
   103.75    4.595   4.595   4.595   4.595   4.595   4.595   4.595   4.595   4.595   4.595   4.595   4.595   4.595
    90.00    4.595   4.595   4.595   4.595   4.595   4.595   4.595   4.595   4.595   4.595   4.595   4.595   4.595
    76.25    4.595   4.595   4.595   4.595   4.595   4.595   4.595   4.595   4.595   4.595   4.595   4.595   4.595
    62.50    4.595   4.595   4.595   4.595   4.595   4.595   4.595   4.595   4.595   4.595   4.595   4.595   4.595
    48.75    4.595   4.595   4.595   4.595   4.595   4.595   4.595   4.595   4.595   4.595   4.595   4.595   4.595
    35.00    4.595   4.595   4.595   4.595   4.595   4.595   4.595   4.595   4.595   4.595   4.595   4.595   4.595
    21.25    4.595   4.595   4.595   4.595   4.595   4.595   4.595   4.595   4.595   4.595   4.595   4.595   4.595
     7.50    4.595   4.595   4.595   4.595   4.595   4.595   4.595   4.595   4.595   4.595   4.595   4.595   4.595

   Mean standard deviation across all grid points:
      u component:    9.776 m/s
      v component:    7.694 m/s
      w component:    4.595 m/s


U-component (X) statistics from the interpolated hub point:

   Mean =  90.0000 m/s
   TI   =  10.8901 %


Processing complete.  15.891 CPU seconds used.
