
This summary file was generated by TurbSim (v2.00.07a-bjj, 14-Jun-2016) on 23-Mar-2020 at 09:50:53.


Runtime Options:

        11  Random seed #1
        12  Random seed #2
         F  Output binary HH turbulence parameters?
         F  Output formatted turbulence parameters?
         F  Output AeroDyn HH files?
         T  Output AeroDyn FF files?
         F  Output BLADED FF files?
         F  Output tower data?
         F  Output formatted FF files?
         F  Output coherent turbulence time step file?
         T  Clockwise rotation when looking downwind?
 0 -  NONE  IEC turbulence models scaled to exact specified standard deviation


Turbine/Model Specifications:

        13  Vertical grid-point matrix dimension
        13  Horizontal grid-point matrix dimension
     0.050  Time step [seconds]
  3630.000  Analysis time [seconds]
  3630.000  Usable output time [seconds]
    90.000  Hub height [m]
   165.000  Grid height [m]
   165.000  Grid width [m]
     0.000  Vertical flow angle [degrees]
     0.000  Horizontal flow angle [degrees]


Meteorological Boundary Conditions:

    IECKAI  IEC Kaimal spectral model
         3  IEC standard: IEC 61400-3 Ed. 1: 2006
    11.000  Percent turbulence intensity, IEC 61400-3 Ed. 1: 2006
       NTM  IEC Normal Turbulence Model
       N/A  IEC Extreme Turbulence Model (ETM) "c" parameter [m/s]
       IEC  Wind profile type
    90.000  Reference height [m]
   100.000  Reference wind speed [m/s]
       N/A  Jet height [m]
     0.140  Power law exponent
     0.030  Surface roughness length [m]


Non-IEC Meteorological Boundary Conditions:

       N/A  Site latitude [degrees]
       N/A  Gradient Richardson number
       N/A  Friction or shear velocity [m/s]
       N/A  Mixing layer depth [m]
       N/A  Mean hub u'w' Reynolds stress
       N/A  Mean hub u'v' Reynolds stress
       N/A  Mean hub v'w' Reynolds stress


Spatial Coherence Models:

       IEC  u-component coherence model
      NONE  v-component coherence model
      NONE  w-component coherence model
(   12.000, 0.353E-03)  u-component coherence parameters
                   N/A  v-component coherence parameters
                   N/A  w-component coherence parameters
       N/A  Coherence exponent


You have requested that the following file(s) be generated:

   1_100.bts (AeroDyn/TurbSim full-field wind file)


Turbulence Simulation Scaling Parameter Summary:

   Turbulence model used                            =  IEC Kaimal
   Turbulence characteristic                        =  User-specified
   IEC standard                                     =  IEC 61400-3 Ed. 1: 2006
   Mean wind speed at hub height                    =  100.000 m/s
   Characteristic value of standard deviation       =   11.000 m/s
   Turbulence scale                                 =   42.000 m
   u-component integral scale                       =  340.200 m
   Coherency scale                                  =  340.200 m
   Characteristic value of hub turbulence intensity =   11.000%
   Gradient Richardson number                       =    0.000

   Wind profile type                                =  Power law on rotor disk, logarithmic elsewhere
   Power law exponent                               =    0.140
   Mean shear across rotor disk                     =    0.236 (m/s)/m
   Assumed rotor diameter                           =  165.000 m
   Surface roughness length                         =    0.030 m

   Nyquist frequency of turbulent wind field        =   10.000 Hz

   Number of time steps in the FFT                  =    72600
   Number of time steps output                      =    72600
   Number of points simulated                       =      169


Mean Flow Angles:

   Vertical   =   0.0 degrees
   Horizontal =   0.0 degrees

Mean Wind Speed Profile:

   Height    Wind Speed   Horizontal Angle  Vertical Angle  U-comp (X)   V-comp (Y)   W-comp (Z)
     (m)        (m/s)         (degrees)       (degrees)       (m/s)        (m/s)        (m/s)   
   ------    ----------   ----------------  --------------  ----------   ----------   ----------
    172.5      109.54            0.00            0.00        109.54         0.00         0.00
    158.8      108.27            0.00            0.00        108.27         0.00         0.00
    145.0      106.90            0.00            0.00        106.90         0.00         0.00
    131.2      105.42            0.00            0.00        105.42         0.00         0.00
    117.5      103.80            0.00            0.00        103.80         0.00         0.00
    103.8      102.01            0.00            0.00        102.01         0.00         0.00
     90.0      100.00            0.00            0.00        100.00         0.00         0.00
     76.2       97.71            0.00            0.00         97.71         0.00         0.00
     62.5       95.02            0.00            0.00         95.02         0.00         0.00
     48.8       91.77            0.00            0.00         91.77         0.00         0.00
     35.0       87.61            0.00            0.00         87.61         0.00         0.00
     21.2       81.70            0.00            0.00         81.70         0.00         0.00
      7.5       70.62            0.00            0.00         70.62         0.00         0.00


Harvested Random Seeds after Generation of the Random Numbers:

     42362498 Harvested seed # 1
    583267423 Harvested seed # 2


Hub-Height Simulated Turbulence Statistical Summary:

   Type of Wind        Min (m/s)   Mean (m/s)    Max (m/s)  Sigma (m/s)       TI (%)
   ----------------    ---------   ----------    ---------  -----------       ------
   Longitudinal (u)        58.76       100.00       145.76       10.889       10.889
   Lateral (v)            -34.81        -0.00        35.45        8.532        8.532
   Vertical (w)           -22.05         0.00        20.90        5.077        5.077
   U component             58.76       100.00       145.76       10.889       10.889
   V component            -34.81        -0.00        35.45        8.532        8.532
   W component            -22.05         0.00        20.90        5.077        5.077
   Horizontal (U&V)        58.79       100.37       146.19       10.862       10.822
   Total                   59.10       100.50       146.19       10.851       10.798

                       Min Reynolds     Mean Reynolds    Max Reynolds    Correlation
   Product             Stress (m/s)^2   Stress (m/s)^2   Stress (m/s)^2  Coefficient
   ----------------    --------------   --------------   --------------  -----------
   u'w'                   -698.703            -0.159           462.688        -0.003
   u'v'                   -770.429             0.572           870.672         0.006
   v'w'                   -371.129            -1.206           527.063        -0.028


   Friction Velocity (Ustar)  =      0.399 m/s
   Maximum Instantaneous TKE  =   1110.173 (m/s)^2
   Maximum Instantaneous CTKE =    461.387 (m/s)^2


Grid Point Variance Summary:

   Y-coord  -82.50  -68.75  -55.00  -41.25  -27.50  -13.75    0.00   13.75   27.50   41.25   55.00   68.75   82.50

   Height   Standard deviation at grid points for the u component:
   172.50   11.106  11.105  11.040  11.082  10.905  10.926  10.968  10.906  10.775  10.862  10.729  10.765  10.785
   158.75   11.112  11.011  11.110  10.917  10.817  10.826  11.012  10.885  10.767  10.761  10.810  10.650  10.744
   145.00   11.121  10.945  10.985  10.882  10.763  10.807  10.887  10.940  10.875  10.871  10.816  10.776  10.819
   131.25   11.002  10.997  10.887  10.965  10.705  10.739  10.842  10.881  10.719  10.784  10.778  10.765  10.902
   117.50   11.064  10.899  10.932  10.790  10.728  10.730  10.828  11.001  10.955  10.814  10.807  10.945  10.949
   103.75   11.155  10.998  10.961  10.857  10.846  10.879  10.922  10.963  10.967  10.981  11.000  11.110  10.870
    90.00   11.127  10.983  10.911  10.923  10.802  10.847  10.889  10.887  10.903  10.831  10.775  10.872  10.979
    76.25   11.154  11.105  10.948  10.834  10.803  10.775  10.786  10.746  10.704  10.732  10.841  10.972  10.883
    62.50   11.026  10.996  10.953  11.020  10.940  10.816  10.745  10.741  10.752  10.749  10.847  10.729  10.704
    48.75   11.151  11.176  10.870  10.737  10.831  10.758  10.835  10.774  10.745  10.803  10.753  10.591  10.713
    35.00   10.967  10.953  10.832  10.823  10.734  10.763  10.744  10.834  10.747  10.804  10.672  10.600  10.703
    21.25   10.921  10.823  10.723  10.743  10.719  10.680  10.702  10.688  10.763  10.790  10.689  10.685  10.729
     7.50   10.830  10.749  10.774  10.786  10.677  10.730  10.611  10.662  10.628  10.726  10.778  10.872  10.810

   Height   Standard deviation at grid points for the v component:
   172.50    8.532   8.532   8.532   8.532   8.532   8.532   8.532   8.532   8.532   8.532   8.532   8.532   8.532
   158.75    8.532   8.532   8.532   8.532   8.532   8.532   8.532   8.532   8.532   8.532   8.532   8.532   8.532
   145.00    8.532   8.532   8.532   8.532   8.532   8.532   8.532   8.532   8.532   8.532   8.532   8.532   8.532
   131.25    8.532   8.532   8.532   8.532   8.532   8.532   8.532   8.532   8.532   8.532   8.532   8.532   8.532
   117.50    8.532   8.532   8.532   8.532   8.532   8.532   8.532   8.532   8.532   8.532   8.532   8.532   8.532
   103.75    8.532   8.532   8.532   8.532   8.532   8.532   8.532   8.532   8.532   8.532   8.532   8.532   8.532
    90.00    8.532   8.532   8.532   8.532   8.532   8.532   8.532   8.532   8.532   8.532   8.532   8.532   8.532
    76.25    8.532   8.532   8.532   8.532   8.532   8.532   8.532   8.532   8.532   8.532   8.532   8.532   8.532
    62.50    8.532   8.532   8.532   8.532   8.532   8.532   8.532   8.532   8.532   8.532   8.532   8.532   8.532
    48.75    8.532   8.532   8.532   8.532   8.532   8.532   8.532   8.532   8.532   8.532   8.532   8.532   8.532
    35.00    8.532   8.532   8.532   8.532   8.532   8.532   8.532   8.532   8.532   8.532   8.532   8.532   8.532
    21.25    8.532   8.532   8.532   8.532   8.532   8.532   8.532   8.532   8.532   8.532   8.532   8.532   8.532
     7.50    8.532   8.532   8.532   8.532   8.532   8.532   8.532   8.532   8.532   8.532   8.532   8.532   8.532

   Height   Standard deviation at grid points for the w component:
   172.50    5.077   5.077   5.077   5.077   5.077   5.077   5.077   5.077   5.077   5.077   5.077   5.077   5.077
   158.75    5.077   5.077   5.077   5.077   5.077   5.077   5.077   5.077   5.077   5.077   5.077   5.077   5.077
   145.00    5.077   5.077   5.077   5.077   5.077   5.077   5.077   5.077   5.077   5.077   5.077   5.077   5.077
   131.25    5.077   5.077   5.077   5.077   5.077   5.077   5.077   5.077   5.077   5.077   5.077   5.077   5.077
   117.50    5.077   5.077   5.077   5.077   5.077   5.077   5.077   5.077   5.077   5.077   5.077   5.077   5.077
   103.75    5.077   5.077   5.077   5.077   5.077   5.077   5.077   5.077   5.077   5.077   5.077   5.077   5.077
    90.00    5.077   5.077   5.077   5.077   5.077   5.077   5.077   5.077   5.077   5.077   5.077   5.077   5.077
    76.25    5.077   5.077   5.077   5.077   5.077   5.077   5.077   5.077   5.077   5.077   5.077   5.077   5.077
    62.50    5.077   5.077   5.077   5.077   5.077   5.077   5.077   5.077   5.077   5.077   5.077   5.077   5.077
    48.75    5.077   5.077   5.077   5.077   5.077   5.077   5.077   5.077   5.077   5.077   5.077   5.077   5.077
    35.00    5.077   5.077   5.077   5.077   5.077   5.077   5.077   5.077   5.077   5.077   5.077   5.077   5.077
    21.25    5.077   5.077   5.077   5.077   5.077   5.077   5.077   5.077   5.077   5.077   5.077   5.077   5.077
     7.50    5.077   5.077   5.077   5.077   5.077   5.077   5.077   5.077   5.077   5.077   5.077   5.077   5.077

   Mean standard deviation across all grid points:
      u component:   10.852 m/s
      v component:    8.532 m/s
      w component:    5.077 m/s


U-component (X) statistics from the interpolated hub point:

   Mean = 100.0000 m/s
   TI   =  10.8893 %


Processing complete.  15.75 CPU seconds used.
