
This summary file was generated by TurbSim (v2.00.07a-bjj, 14-Jun-2016) on 23-Mar-2020 at 09:45:47.


Runtime Options:

        11  Random seed #1
        12  Random seed #2
         F  Output binary HH turbulence parameters?
         F  Output formatted turbulence parameters?
         F  Output AeroDyn HH files?
         T  Output AeroDyn FF files?
         F  Output BLADED FF files?
         F  Output tower data?
         F  Output formatted FF files?
         F  Output coherent turbulence time step file?
         T  Clockwise rotation when looking downwind?
 0 -  NONE  IEC turbulence models scaled to exact specified standard deviation


Turbine/Model Specifications:

        13  Vertical grid-point matrix dimension
        13  Horizontal grid-point matrix dimension
     0.050  Time step [seconds]
  3630.000  Analysis time [seconds]
  3630.000  Usable output time [seconds]
    90.000  Hub height [m]
   165.000  Grid height [m]
   165.000  Grid width [m]
     0.000  Vertical flow angle [degrees]
     0.000  Horizontal flow angle [degrees]


Meteorological Boundary Conditions:

    IECKAI  IEC Kaimal spectral model
         3  IEC standard: IEC 61400-3 Ed. 1: 2006
    11.000  Percent turbulence intensity, IEC 61400-3 Ed. 1: 2006
       NTM  IEC Normal Turbulence Model
       N/A  IEC Extreme Turbulence Model (ETM) "c" parameter [m/s]
       IEC  Wind profile type
    90.000  Reference height [m]
    45.000  Reference wind speed [m/s]
       N/A  Jet height [m]
     0.140  Power law exponent
     0.030  Surface roughness length [m]


Non-IEC Meteorological Boundary Conditions:

       N/A  Site latitude [degrees]
       N/A  Gradient Richardson number
       N/A  Friction or shear velocity [m/s]
       N/A  Mixing layer depth [m]
       N/A  Mean hub u'w' Reynolds stress
       N/A  Mean hub u'v' Reynolds stress
       N/A  Mean hub v'w' Reynolds stress


Spatial Coherence Models:

       IEC  u-component coherence model
      NONE  v-component coherence model
      NONE  w-component coherence model
(   12.000, 0.353E-03)  u-component coherence parameters
                   N/A  v-component coherence parameters
                   N/A  w-component coherence parameters
       N/A  Coherence exponent


You have requested that the following file(s) be generated:

   1_45.bts (AeroDyn/TurbSim full-field wind file)


Turbulence Simulation Scaling Parameter Summary:

   Turbulence model used                            =  IEC Kaimal
   Turbulence characteristic                        =  User-specified
   IEC standard                                     =  IEC 61400-3 Ed. 1: 2006
   Mean wind speed at hub height                    =   45.000 m/s
   Characteristic value of standard deviation       =    4.950 m/s
   Turbulence scale                                 =   42.000 m
   u-component integral scale                       =  340.200 m
   Coherency scale                                  =  340.200 m
   Characteristic value of hub turbulence intensity =   11.000%
   Gradient Richardson number                       =    0.000

   Wind profile type                                =  Power law on rotor disk, logarithmic elsewhere
   Power law exponent                               =    0.140
   Mean shear across rotor disk                     =    0.106 (m/s)/m
   Assumed rotor diameter                           =  165.000 m
   Surface roughness length                         =    0.030 m

   Nyquist frequency of turbulent wind field        =   10.000 Hz

   Number of time steps in the FFT                  =    72600
   Number of time steps output                      =    72600
   Number of points simulated                       =      169


Mean Flow Angles:

   Vertical   =   0.0 degrees
   Horizontal =   0.0 degrees

Mean Wind Speed Profile:

   Height    Wind Speed   Horizontal Angle  Vertical Angle  U-comp (X)   V-comp (Y)   W-comp (Z)
     (m)        (m/s)         (degrees)       (degrees)       (m/s)        (m/s)        (m/s)   
   ------    ----------   ----------------  --------------  ----------   ----------   ----------
    172.5       49.29            0.00            0.00         49.29         0.00         0.00
    158.8       48.72            0.00            0.00         48.72         0.00         0.00
    145.0       48.11            0.00            0.00         48.11         0.00         0.00
    131.2       47.44            0.00            0.00         47.44         0.00         0.00
    117.5       46.71            0.00            0.00         46.71         0.00         0.00
    103.8       45.90            0.00            0.00         45.90         0.00         0.00
     90.0       45.00            0.00            0.00         45.00         0.00         0.00
     76.2       43.97            0.00            0.00         43.97         0.00         0.00
     62.5       42.76            0.00            0.00         42.76         0.00         0.00
     48.8       41.30            0.00            0.00         41.30         0.00         0.00
     35.0       39.43            0.00            0.00         39.43         0.00         0.00
     21.2       36.77            0.00            0.00         36.77         0.00         0.00
      7.5       31.78            0.00            0.00         31.78         0.00         0.00


Harvested Random Seeds after Generation of the Random Numbers:

     42362498 Harvested seed # 1
    583267423 Harvested seed # 2


Hub-Height Simulated Turbulence Statistical Summary:

   Type of Wind        Min (m/s)   Mean (m/s)    Max (m/s)  Sigma (m/s)       TI (%)
   ----------------    ---------   ----------    ---------  -----------       ------
   Longitudinal (u)        26.20        45.00        67.38        4.882       10.849
   Lateral (v)            -14.34        -0.00        15.80        3.887        8.638
   Vertical (w)            -9.97         0.00         9.65        2.362        5.250
   U component             26.20        45.00        67.38        4.882       10.849
   V component            -14.34        -0.00        15.80        3.887        8.638
   W component             -9.97         0.00         9.65        2.362        5.250
   Horizontal (U&V)        26.24        45.17        67.62        4.872       10.785
   Total                   26.37        45.23        67.62        4.867       10.760

                       Min Reynolds     Mean Reynolds    Max Reynolds    Correlation
   Product             Stress (m/s)^2   Stress (m/s)^2   Stress (m/s)^2  Coefficient
   ----------------    --------------   --------------   --------------  -----------
   u'w'                   -181.723            -0.078           101.497        -0.007
   u'v'                   -220.166             0.204           172.876         0.011
   v'w'                    -84.650            -0.349           107.290        -0.038


   Friction Velocity (Ustar)  =      0.280 m/s
   Maximum Instantaneous TKE  =    266.921 (m/s)^2
   Maximum Instantaneous CTKE =    110.701 (m/s)^2


Grid Point Variance Summary:

   Y-coord  -82.50  -68.75  -55.00  -41.25  -27.50  -13.75    0.00   13.75   27.50   41.25   55.00   68.75   82.50

   Height   Standard deviation at grid points for the u component:
   172.50    5.046   5.049   5.017   5.045   4.969   4.992   5.010   4.963   4.872   4.908   4.825   4.824   4.843
   158.75    5.072   4.993   5.077   4.979   4.919   4.939   5.055   4.930   4.831   4.803   4.848   4.728   4.822
   145.00    5.082   4.998   5.031   4.959   4.863   4.912   4.920   4.971   4.887   4.863   4.855   4.846   4.847
   131.25    5.058   5.056   4.946   4.979   4.796   4.835   4.881   4.893   4.791   4.843   4.821   4.785   4.873
   117.50    5.081   4.963   4.995   4.873   4.799   4.798   4.874   4.964   4.926   4.835   4.805   4.928   4.915
   103.75    5.141   5.037   5.041   4.930   4.889   4.934   4.908   4.907   4.904   4.927   4.940   5.018   4.886
    90.00    5.121   5.012   4.981   4.961   4.889   4.891   4.882   4.889   4.901   4.848   4.803   4.863   4.950
    76.25    5.128   5.102   5.014   4.907   4.895   4.864   4.863   4.829   4.833   4.792   4.832   4.957   4.871
    62.50    5.040   5.029   5.012   5.039   5.019   4.897   4.843   4.855   4.864   4.841   4.859   4.822   4.756
    48.75    5.109   5.133   4.921   4.880   4.922   4.887   4.918   4.890   4.863   4.891   4.848   4.728   4.731
    35.00    5.005   4.995   4.915   4.932   4.861   4.872   4.867   4.944   4.871   4.871   4.779   4.719   4.777
    21.25    4.956   4.928   4.848   4.879   4.871   4.837   4.860   4.843   4.901   4.892   4.821   4.799   4.805
     7.50    4.898   4.850   4.881   4.906   4.855   4.923   4.848   4.862   4.821   4.881   4.887   4.902   4.857

   Height   Standard deviation at grid points for the v component:
   172.50    3.887   3.887   3.887   3.887   3.887   3.887   3.887   3.887   3.887   3.887   3.887   3.887   3.887
   158.75    3.887   3.887   3.887   3.887   3.887   3.887   3.887   3.887   3.887   3.887   3.887   3.887   3.887
   145.00    3.887   3.887   3.887   3.887   3.887   3.887   3.887   3.887   3.887   3.887   3.887   3.887   3.887
   131.25    3.887   3.887   3.887   3.887   3.887   3.887   3.887   3.887   3.887   3.887   3.887   3.887   3.887
   117.50    3.887   3.887   3.887   3.887   3.887   3.887   3.887   3.887   3.887   3.887   3.887   3.887   3.887
   103.75    3.887   3.887   3.887   3.887   3.887   3.887   3.887   3.887   3.887   3.887   3.887   3.887   3.887
    90.00    3.887   3.887   3.887   3.887   3.887   3.887   3.887   3.887   3.887   3.887   3.887   3.887   3.887
    76.25    3.887   3.887   3.887   3.887   3.887   3.887   3.887   3.887   3.887   3.887   3.887   3.887   3.887
    62.50    3.887   3.887   3.887   3.887   3.887   3.887   3.887   3.887   3.887   3.887   3.887   3.887   3.887
    48.75    3.887   3.887   3.887   3.887   3.887   3.887   3.887   3.887   3.887   3.887   3.887   3.887   3.887
    35.00    3.887   3.887   3.887   3.887   3.887   3.887   3.887   3.887   3.887   3.887   3.887   3.887   3.887
    21.25    3.887   3.887   3.887   3.887   3.887   3.887   3.887   3.887   3.887   3.887   3.887   3.887   3.887
     7.50    3.887   3.887   3.887   3.887   3.887   3.887   3.887   3.887   3.887   3.887   3.887   3.887   3.887

   Height   Standard deviation at grid points for the w component:
   172.50    2.362   2.362   2.362   2.362   2.362   2.362   2.362   2.362   2.362   2.362   2.362   2.362   2.362
   158.75    2.362   2.362   2.362   2.362   2.362   2.362   2.362   2.362   2.362   2.362   2.362   2.362   2.362
   145.00    2.362   2.362   2.362   2.362   2.362   2.362   2.362   2.362   2.362   2.362   2.362   2.362   2.362
   131.25    2.362   2.362   2.362   2.362   2.362   2.362   2.362   2.362   2.362   2.362   2.362   2.362   2.362
   117.50    2.362   2.362   2.362   2.362   2.362   2.362   2.362   2.362   2.362   2.362   2.362   2.362   2.362
   103.75    2.362   2.362   2.362   2.362   2.362   2.362   2.362   2.362   2.362   2.362   2.362   2.362   2.362
    90.00    2.362   2.362   2.362   2.362   2.362   2.362   2.362   2.362   2.362   2.362   2.362   2.362   2.362
    76.25    2.362   2.362   2.362   2.362   2.362   2.362   2.362   2.362   2.362   2.362   2.362   2.362   2.362
    62.50    2.362   2.362   2.362   2.362   2.362   2.362   2.362   2.362   2.362   2.362   2.362   2.362   2.362
    48.75    2.362   2.362   2.362   2.362   2.362   2.362   2.362   2.362   2.362   2.362   2.362   2.362   2.362
    35.00    2.362   2.362   2.362   2.362   2.362   2.362   2.362   2.362   2.362   2.362   2.362   2.362   2.362
    21.25    2.362   2.362   2.362   2.362   2.362   2.362   2.362   2.362   2.362   2.362   2.362   2.362   2.362
     7.50    2.362   2.362   2.362   2.362   2.362   2.362   2.362   2.362   2.362   2.362   2.362   2.362   2.362

   Mean standard deviation across all grid points:
      u component:    4.909 m/s
      v component:    3.887 m/s
      w component:    2.362 m/s


U-component (X) statistics from the interpolated hub point:

   Mean =  45.0000 m/s
   TI   =  10.8490 %


Processing complete.  16.344 CPU seconds used.
