
This summary file was generated by TurbSim (v2.00.07a-bjj, 14-Jun-2016) on 23-Mar-2020 at 09:46:39.


Runtime Options:

        11  Random seed #1
        12  Random seed #2
         F  Output binary HH turbulence parameters?
         F  Output formatted turbulence parameters?
         F  Output AeroDyn HH files?
         T  Output AeroDyn FF files?
         F  Output BLADED FF files?
         F  Output tower data?
         F  Output formatted FF files?
         F  Output coherent turbulence time step file?
         T  Clockwise rotation when looking downwind?
 0 -  NONE  IEC turbulence models scaled to exact specified standard deviation


Turbine/Model Specifications:

        13  Vertical grid-point matrix dimension
        13  Horizontal grid-point matrix dimension
     0.050  Time step [seconds]
  3630.000  Analysis time [seconds]
  3630.000  Usable output time [seconds]
    90.000  Hub height [m]
   165.000  Grid height [m]
   165.000  Grid width [m]
     0.000  Vertical flow angle [degrees]
     0.000  Horizontal flow angle [degrees]


Meteorological Boundary Conditions:

    IECKAI  IEC Kaimal spectral model
         3  IEC standard: IEC 61400-3 Ed. 1: 2006
    11.000  Percent turbulence intensity, IEC 61400-3 Ed. 1: 2006
       NTM  IEC Normal Turbulence Model
       N/A  IEC Extreme Turbulence Model (ETM) "c" parameter [m/s]
       IEC  Wind profile type
    90.000  Reference height [m]
    55.000  Reference wind speed [m/s]
       N/A  Jet height [m]
     0.140  Power law exponent
     0.030  Surface roughness length [m]


Non-IEC Meteorological Boundary Conditions:

       N/A  Site latitude [degrees]
       N/A  Gradient Richardson number
       N/A  Friction or shear velocity [m/s]
       N/A  Mixing layer depth [m]
       N/A  Mean hub u'w' Reynolds stress
       N/A  Mean hub u'v' Reynolds stress
       N/A  Mean hub v'w' Reynolds stress


Spatial Coherence Models:

       IEC  u-component coherence model
      NONE  v-component coherence model
      NONE  w-component coherence model
(   12.000, 0.353E-03)  u-component coherence parameters
                   N/A  v-component coherence parameters
                   N/A  w-component coherence parameters
       N/A  Coherence exponent


You have requested that the following file(s) be generated:

   1_55.bts (AeroDyn/TurbSim full-field wind file)


Turbulence Simulation Scaling Parameter Summary:

   Turbulence model used                            =  IEC Kaimal
   Turbulence characteristic                        =  User-specified
   IEC standard                                     =  IEC 61400-3 Ed. 1: 2006
   Mean wind speed at hub height                    =   55.000 m/s
   Characteristic value of standard deviation       =    6.050 m/s
   Turbulence scale                                 =   42.000 m
   u-component integral scale                       =  340.200 m
   Coherency scale                                  =  340.200 m
   Characteristic value of hub turbulence intensity =   11.000%
   Gradient Richardson number                       =    0.000

   Wind profile type                                =  Power law on rotor disk, logarithmic elsewhere
   Power law exponent                               =    0.140
   Mean shear across rotor disk                     =    0.130 (m/s)/m
   Assumed rotor diameter                           =  165.000 m
   Surface roughness length                         =    0.030 m

   Nyquist frequency of turbulent wind field        =   10.000 Hz

   Number of time steps in the FFT                  =    72600
   Number of time steps output                      =    72600
   Number of points simulated                       =      169


Mean Flow Angles:

   Vertical   =   0.0 degrees
   Horizontal =   0.0 degrees

Mean Wind Speed Profile:

   Height    Wind Speed   Horizontal Angle  Vertical Angle  U-comp (X)   V-comp (Y)   W-comp (Z)
     (m)        (m/s)         (degrees)       (degrees)       (m/s)        (m/s)        (m/s)   
   ------    ----------   ----------------  --------------  ----------   ----------   ----------
    172.5       60.24            0.00            0.00         60.24         0.00         0.00
    158.8       59.55            0.00            0.00         59.55         0.00         0.00
    145.0       58.80            0.00            0.00         58.80         0.00         0.00
    131.2       57.98            0.00            0.00         57.98         0.00         0.00
    117.5       57.09            0.00            0.00         57.09         0.00         0.00
    103.8       56.11            0.00            0.00         56.11         0.00         0.00
     90.0       55.00            0.00            0.00         55.00         0.00         0.00
     76.2       53.74            0.00            0.00         53.74         0.00         0.00
     62.5       52.26            0.00            0.00         52.26         0.00         0.00
     48.8       50.48            0.00            0.00         50.48         0.00         0.00
     35.0       48.19            0.00            0.00         48.19         0.00         0.00
     21.2       44.94            0.00            0.00         44.94         0.00         0.00
      7.5       38.84            0.00            0.00         38.84         0.00         0.00


Harvested Random Seeds after Generation of the Random Numbers:

     42362498 Harvested seed # 1
    583267423 Harvested seed # 2


Hub-Height Simulated Turbulence Statistical Summary:

   Type of Wind        Min (m/s)   Mean (m/s)    Max (m/s)  Sigma (m/s)       TI (%)
   ----------------    ---------   ----------    ---------  -----------       ------
   Longitudinal (u)        31.78        55.00        81.93        5.979       10.870
   Lateral (v)            -18.07        -0.00        19.44        4.739        8.617
   Vertical (w)           -12.21         0.00        11.76        2.868        5.215
   U component             31.78        55.00        81.93        5.979       10.870
   V component            -18.07        -0.00        19.44        4.739        8.617
   W component            -12.21         0.00        11.76        2.868        5.215
   Horizontal (U&V)        31.82        55.21        82.21        5.965       10.805
   Total                   31.98        55.28        82.21        5.959       10.780

                       Min Reynolds     Mean Reynolds    Max Reynolds    Correlation
   Product             Stress (m/s)^2   Stress (m/s)^2   Stress (m/s)^2  Coefficient
   ----------------    --------------   --------------   --------------  -----------
   u'w'                   -259.250            -0.094           147.434        -0.005
   u'v'                   -305.147             0.266           262.484         0.009
   v'w'                   -120.577            -0.481           161.627        -0.035


   Friction Velocity (Ustar)  =      0.306 m/s
   Maximum Instantaneous TKE  =    385.674 (m/s)^2
   Maximum Instantaneous CTKE =    153.677 (m/s)^2


Grid Point Variance Summary:

   Y-coord  -82.50  -68.75  -55.00  -41.25  -27.50  -13.75    0.00   13.75   27.50   41.25   55.00   68.75   82.50

   Height   Standard deviation at grid points for the u component:
   172.50    6.166   6.167   6.127   6.157   6.056   6.078   6.099   6.044   5.945   5.993   5.897   5.907   5.926
   158.75    6.186   6.101   6.189   6.070   5.996   6.013   6.145   6.013   5.907   5.888   5.935   5.805   5.903
   145.00    6.193   6.093   6.126   6.044   5.938   5.988   6.009   6.062   5.980   5.959   5.946   5.931   5.937
   131.25    6.152   6.148   6.036   6.077   5.873   5.909   5.967   5.987   5.870   5.927   5.911   5.878   5.974
   117.50    6.182   6.048   6.082   5.955   5.879   5.877   5.957   6.063   6.026   5.927   5.903   6.031   6.021
   103.75    6.245   6.131   6.125   6.013   5.974   6.018   6.007   6.014   6.011   6.035   6.052   6.138   5.983
    90.00    6.222   6.104   6.064   6.049   5.965   5.977   5.978   5.982   5.998   5.943   5.892   5.961   6.058
    76.25    6.233   6.202   6.099   5.989   5.974   5.942   5.944   5.910   5.904   5.876   5.930   6.062   5.971
    62.50    6.132   6.119   6.095   6.134   6.105   5.980   5.919   5.927   5.938   5.922   5.955   5.900   5.840
    48.75    6.218   6.241   6.003   5.949   6.002   5.960   6.001   5.966   5.937   5.971   5.925   5.794   5.822
    35.00    6.095   6.083   5.994   6.007   5.930   5.949   5.942   6.023   5.948   5.956   5.850   5.785   5.859
    21.25    6.047   6.003   5.918   5.947   5.935   5.904   5.926   5.907   5.971   5.971   5.892   5.872   5.884
     7.50    5.981   5.923   5.955   5.977   5.913   5.982   5.897   5.919   5.878   5.949   5.965   5.995   5.946

   Height   Standard deviation at grid points for the v component:
   172.50    4.739   4.739   4.739   4.739   4.739   4.739   4.739   4.739   4.739   4.739   4.739   4.739   4.739
   158.75    4.739   4.739   4.739   4.739   4.739   4.739   4.739   4.739   4.739   4.739   4.739   4.739   4.739
   145.00    4.739   4.739   4.739   4.739   4.739   4.739   4.739   4.739   4.739   4.739   4.739   4.739   4.739
   131.25    4.739   4.739   4.739   4.739   4.739   4.739   4.739   4.739   4.739   4.739   4.739   4.739   4.739
   117.50    4.739   4.739   4.739   4.739   4.739   4.739   4.739   4.739   4.739   4.739   4.739   4.739   4.739
   103.75    4.739   4.739   4.739   4.739   4.739   4.739   4.739   4.739   4.739   4.739   4.739   4.739   4.739
    90.00    4.739   4.739   4.739   4.739   4.739   4.739   4.739   4.739   4.739   4.739   4.739   4.739   4.739
    76.25    4.739   4.739   4.739   4.739   4.739   4.739   4.739   4.739   4.739   4.739   4.739   4.739   4.739
    62.50    4.739   4.739   4.739   4.739   4.739   4.739   4.739   4.739   4.739   4.739   4.739   4.739   4.739
    48.75    4.739   4.739   4.739   4.739   4.739   4.739   4.739   4.739   4.739   4.739   4.739   4.739   4.739
    35.00    4.739   4.739   4.739   4.739   4.739   4.739   4.739   4.739   4.739   4.739   4.739   4.739   4.739
    21.25    4.739   4.739   4.739   4.739   4.739   4.739   4.739   4.739   4.739   4.739   4.739   4.739   4.739
     7.50    4.739   4.739   4.739   4.739   4.739   4.739   4.739   4.739   4.739   4.739   4.739   4.739   4.739

   Height   Standard deviation at grid points for the w component:
   172.50    2.868   2.868   2.868   2.868   2.868   2.868   2.868   2.868   2.868   2.868   2.868   2.868   2.868
   158.75    2.868   2.868   2.868   2.868   2.868   2.868   2.868   2.868   2.868   2.868   2.868   2.868   2.868
   145.00    2.868   2.868   2.868   2.868   2.868   2.868   2.868   2.868   2.868   2.868   2.868   2.868   2.868
   131.25    2.868   2.868   2.868   2.868   2.868   2.868   2.868   2.868   2.868   2.868   2.868   2.868   2.868
   117.50    2.868   2.868   2.868   2.868   2.868   2.868   2.868   2.868   2.868   2.868   2.868   2.868   2.868
   103.75    2.868   2.868   2.868   2.868   2.868   2.868   2.868   2.868   2.868   2.868   2.868   2.868   2.868
    90.00    2.868   2.868   2.868   2.868   2.868   2.868   2.868   2.868   2.868   2.868   2.868   2.868   2.868
    76.25    2.868   2.868   2.868   2.868   2.868   2.868   2.868   2.868   2.868   2.868   2.868   2.868   2.868
    62.50    2.868   2.868   2.868   2.868   2.868   2.868   2.868   2.868   2.868   2.868   2.868   2.868   2.868
    48.75    2.868   2.868   2.868   2.868   2.868   2.868   2.868   2.868   2.868   2.868   2.868   2.868   2.868
    35.00    2.868   2.868   2.868   2.868   2.868   2.868   2.868   2.868   2.868   2.868   2.868   2.868   2.868
    21.25    2.868   2.868   2.868   2.868   2.868   2.868   2.868   2.868   2.868   2.868   2.868   2.868   2.868
     7.50    2.868   2.868   2.868   2.868   2.868   2.868   2.868   2.868   2.868   2.868   2.868   2.868   2.868

   Mean standard deviation across all grid points:
      u component:    5.995 m/s
      v component:    4.739 m/s
      w component:    2.868 m/s


U-component (X) statistics from the interpolated hub point:

   Mean =  55.0000 m/s
   TI   =  10.8700 %


Processing complete.  16.172 CPU seconds used.
