
This summary file was generated by TurbSim (v2.00.07a-bjj, 14-Jun-2016) on 23-Mar-2020 at 10:29:09.


Runtime Options:

        51  Random seed #1
        52  Random seed #2
         F  Output binary HH turbulence parameters?
         F  Output formatted turbulence parameters?
         F  Output AeroDyn HH files?
         T  Output AeroDyn FF files?
         F  Output BLADED FF files?
         F  Output tower data?
         F  Output formatted FF files?
         F  Output coherent turbulence time step file?
         T  Clockwise rotation when looking downwind?
 0 -  NONE  IEC turbulence models scaled to exact specified standard deviation


Turbine/Model Specifications:

        13  Vertical grid-point matrix dimension
        13  Horizontal grid-point matrix dimension
     0.050  Time step [seconds]
  3630.000  Analysis time [seconds]
  3630.000  Usable output time [seconds]
    90.000  Hub height [m]
   165.000  Grid height [m]
   165.000  Grid width [m]
     0.000  Vertical flow angle [degrees]
     0.000  Horizontal flow angle [degrees]


Meteorological Boundary Conditions:

    IECKAI  IEC Kaimal spectral model
         3  IEC standard: IEC 61400-3 Ed. 1: 2006
    11.000  Percent turbulence intensity, IEC 61400-3 Ed. 1: 2006
       NTM  IEC Normal Turbulence Model
       N/A  IEC Extreme Turbulence Model (ETM) "c" parameter [m/s]
       IEC  Wind profile type
    90.000  Reference height [m]
    30.000  Reference wind speed [m/s]
       N/A  Jet height [m]
     0.140  Power law exponent
     0.030  Surface roughness length [m]


Non-IEC Meteorological Boundary Conditions:

       N/A  Site latitude [degrees]
       N/A  Gradient Richardson number
       N/A  Friction or shear velocity [m/s]
       N/A  Mixing layer depth [m]
       N/A  Mean hub u'w' Reynolds stress
       N/A  Mean hub u'v' Reynolds stress
       N/A  Mean hub v'w' Reynolds stress


Spatial Coherence Models:

       IEC  u-component coherence model
      NONE  v-component coherence model
      NONE  w-component coherence model
(   12.000, 0.353E-03)  u-component coherence parameters
                   N/A  v-component coherence parameters
                   N/A  w-component coherence parameters
       N/A  Coherence exponent


You have requested that the following file(s) be generated:

   5_30.bts (AeroDyn/TurbSim full-field wind file)


Turbulence Simulation Scaling Parameter Summary:

   Turbulence model used                            =  IEC Kaimal
   Turbulence characteristic                        =  User-specified
   IEC standard                                     =  IEC 61400-3 Ed. 1: 2006
   Mean wind speed at hub height                    =   30.000 m/s
   Characteristic value of standard deviation       =    3.300 m/s
   Turbulence scale                                 =   42.000 m
   u-component integral scale                       =  340.200 m
   Coherency scale                                  =  340.200 m
   Characteristic value of hub turbulence intensity =   11.000%
   Gradient Richardson number                       =    0.000

   Wind profile type                                =  Power law on rotor disk, logarithmic elsewhere
   Power law exponent                               =    0.140
   Mean shear across rotor disk                     =    0.071 (m/s)/m
   Assumed rotor diameter                           =  165.000 m
   Surface roughness length                         =    0.030 m

   Nyquist frequency of turbulent wind field        =   10.000 Hz

   Number of time steps in the FFT                  =    72600
   Number of time steps output                      =    72600
   Number of points simulated                       =      169


Mean Flow Angles:

   Vertical   =   0.0 degrees
   Horizontal =   0.0 degrees

Mean Wind Speed Profile:

   Height    Wind Speed   Horizontal Angle  Vertical Angle  U-comp (X)   V-comp (Y)   W-comp (Z)
     (m)        (m/s)         (degrees)       (degrees)       (m/s)        (m/s)        (m/s)   
   ------    ----------   ----------------  --------------  ----------   ----------   ----------
    172.5       32.86            0.00            0.00         32.86         0.00         0.00
    158.8       32.48            0.00            0.00         32.48         0.00         0.00
    145.0       32.07            0.00            0.00         32.07         0.00         0.00
    131.2       31.63            0.00            0.00         31.63         0.00         0.00
    117.5       31.14            0.00            0.00         31.14         0.00         0.00
    103.8       30.60            0.00            0.00         30.60         0.00         0.00
     90.0       30.00            0.00            0.00         30.00         0.00         0.00
     76.2       29.31            0.00            0.00         29.31         0.00         0.00
     62.5       28.51            0.00            0.00         28.51         0.00         0.00
     48.8       27.53            0.00            0.00         27.53         0.00         0.00
     35.0       26.28            0.00            0.00         26.28         0.00         0.00
     21.2       24.51            0.00            0.00         24.51         0.00         0.00
      7.5       21.19            0.00            0.00         21.19         0.00         0.00


Harvested Random Seeds after Generation of the Random Numbers:

   1367762616 Harvested seed # 1
   1095836567 Harvested seed # 2


Hub-Height Simulated Turbulence Statistical Summary:

   Type of Wind        Min (m/s)   Mean (m/s)    Max (m/s)  Sigma (m/s)       TI (%)
   ----------------    ---------   ----------    ---------  -----------       ------
   Longitudinal (u)        15.54        30.00        42.99        3.429       11.431
   Lateral (v)            -11.35        -0.00        10.86        2.602        8.672
   Vertical (w)            -6.30        -0.00         7.22        1.593        5.308
   U component             15.54        30.00        42.99        3.429       11.431
   V component            -11.35        -0.00        10.86        2.602        8.672
   W component             -6.30        -0.00         7.22        1.593        5.308
   Horizontal (U&V)        15.73        30.11        42.99        3.422       11.364
   Total                   15.89        30.16        43.03        3.418       11.333

                       Min Reynolds     Mean Reynolds    Max Reynolds    Correlation
   Product             Stress (m/s)^2   Stress (m/s)^2   Stress (m/s)^2  Coefficient
   ----------------    --------------   --------------   --------------  -----------
   u'w'                    -56.245             0.057            51.889         0.011
   u'v'                    -71.612             0.011            66.404         0.001
   v'w'                    -42.657             0.010            36.852         0.002


   Friction Velocity (Ustar)  =      0.240 m/s
   Maximum Instantaneous TKE  =    110.359 (m/s)^2
   Maximum Instantaneous CTKE =     36.075 (m/s)^2


Grid Point Variance Summary:

   Y-coord  -82.50  -68.75  -55.00  -41.25  -27.50  -13.75    0.00   13.75   27.50   41.25   55.00   68.75   82.50

   Height   Standard deviation at grid points for the u component:
   172.50    3.208   3.282   3.240   3.173   3.244   3.275   3.344   3.337   3.325   3.351   3.317   3.287   3.348
   158.75    3.217   3.194   3.310   3.247   3.329   3.362   3.276   3.237   3.273   3.297   3.281   3.350   3.272
   145.00    3.191   3.218   3.288   3.330   3.263   3.220   3.270   3.284   3.308   3.328   3.311   3.377   3.361
   131.25    3.180   3.267   3.287   3.323   3.273   3.309   3.354   3.348   3.335   3.360   3.334   3.362   3.308
   117.50    3.184   3.201   3.230   3.297   3.325   3.385   3.294   3.353   3.368   3.356   3.339   3.324   3.407
   103.75    3.257   3.236   3.245   3.310   3.339   3.426   3.374   3.404   3.389   3.388   3.351   3.393   3.397
    90.00    3.303   3.279   3.408   3.343   3.407   3.482   3.429   3.455   3.493   3.416   3.386   3.415   3.507
    76.25    3.313   3.329   3.351   3.304   3.396   3.459   3.597   3.597   3.502   3.509   3.528   3.463   3.435
    62.50    3.377   3.337   3.332   3.409   3.317   3.454   3.529   3.565   3.587   3.530   3.493   3.421   3.480
    48.75    3.309   3.328   3.366   3.416   3.388   3.444   3.569   3.560   3.568   3.544   3.524   3.527   3.481
    35.00    3.295   3.236   3.304   3.362   3.416   3.487   3.511   3.466   3.513   3.423   3.506   3.582   3.404
    21.25    3.203   3.172   3.286   3.329   3.432   3.423   3.404   3.341   3.436   3.460   3.475   3.476   3.462
     7.50    3.268   3.205   3.253   3.311   3.327   3.366   3.343   3.319   3.314   3.405   3.434   3.466   3.430

   Height   Standard deviation at grid points for the v component:
   172.50    2.602   2.602   2.602   2.602   2.602   2.602   2.602   2.602   2.602   2.602   2.602   2.602   2.602
   158.75    2.602   2.602   2.602   2.602   2.602   2.602   2.602   2.602   2.602   2.602   2.602   2.602   2.602
   145.00    2.602   2.602   2.602   2.602   2.602   2.602   2.602   2.602   2.602   2.602   2.602   2.602   2.602
   131.25    2.602   2.602   2.602   2.602   2.602   2.602   2.602   2.602   2.602   2.602   2.602   2.602   2.602
   117.50    2.602   2.602   2.602   2.602   2.602   2.602   2.602   2.602   2.602   2.602   2.602   2.602   2.602
   103.75    2.602   2.602   2.602   2.602   2.602   2.602   2.602   2.602   2.602   2.602   2.602   2.602   2.602
    90.00    2.602   2.602   2.602   2.602   2.602   2.602   2.602   2.602   2.602   2.602   2.602   2.602   2.602
    76.25    2.602   2.602   2.602   2.602   2.602   2.602   2.602   2.602   2.602   2.602   2.602   2.602   2.602
    62.50    2.602   2.602   2.602   2.602   2.602   2.602   2.602   2.602   2.602   2.602   2.602   2.602   2.602
    48.75    2.602   2.602   2.602   2.602   2.602   2.602   2.602   2.602   2.602   2.602   2.602   2.602   2.602
    35.00    2.602   2.602   2.602   2.602   2.602   2.602   2.602   2.602   2.602   2.602   2.602   2.602   2.602
    21.25    2.602   2.602   2.602   2.602   2.602   2.602   2.602   2.602   2.602   2.602   2.602   2.602   2.602
     7.50    2.602   2.602   2.602   2.602   2.602   2.602   2.602   2.602   2.602   2.602   2.602   2.602   2.602

   Height   Standard deviation at grid points for the w component:
   172.50    1.593   1.593   1.593   1.593   1.593   1.593   1.593   1.593   1.593   1.593   1.593   1.593   1.593
   158.75    1.593   1.593   1.593   1.593   1.593   1.593   1.593   1.593   1.593   1.593   1.593   1.593   1.593
   145.00    1.593   1.593   1.593   1.593   1.593   1.593   1.593   1.593   1.593   1.593   1.593   1.593   1.593
   131.25    1.593   1.593   1.593   1.593   1.593   1.593   1.593   1.593   1.593   1.593   1.593   1.593   1.593
   117.50    1.593   1.593   1.593   1.593   1.593   1.593   1.593   1.593   1.593   1.593   1.593   1.593   1.593
   103.75    1.593   1.593   1.593   1.593   1.593   1.593   1.593   1.593   1.593   1.593   1.593   1.593   1.593
    90.00    1.593   1.593   1.593   1.593   1.593   1.593   1.593   1.593   1.593   1.593   1.593   1.593   1.593
    76.25    1.593   1.593   1.593   1.593   1.593   1.593   1.593   1.593   1.593   1.593   1.593   1.593   1.593
    62.50    1.593   1.593   1.593   1.593   1.593   1.593   1.593   1.593   1.593   1.593   1.593   1.593   1.593
    48.75    1.593   1.593   1.593   1.593   1.593   1.593   1.593   1.593   1.593   1.593   1.593   1.593   1.593
    35.00    1.593   1.593   1.593   1.593   1.593   1.593   1.593   1.593   1.593   1.593   1.593   1.593   1.593
    21.25    1.593   1.593   1.593   1.593   1.593   1.593   1.593   1.593   1.593   1.593   1.593   1.593   1.593
     7.50    1.593   1.593   1.593   1.593   1.593   1.593   1.593   1.593   1.593   1.593   1.593   1.593   1.593

   Mean standard deviation across all grid points:
      u component:    3.364 m/s
      v component:    2.602 m/s
      w component:    1.593 m/s


U-component (X) statistics from the interpolated hub point:

   Mean =  30.0000 m/s
   TI   =  11.4309 %


Processing complete.  16.422 CPU seconds used.
