
This summary file was generated by TurbSim (v2.00.07a-bjj, 14-Jun-2016) on 23-Mar-2020 at 10:31:30.


Runtime Options:

        51  Random seed #1
        52  Random seed #2
         F  Output binary HH turbulence parameters?
         F  Output formatted turbulence parameters?
         F  Output AeroDyn HH files?
         T  Output AeroDyn FF files?
         F  Output BLADED FF files?
         F  Output tower data?
         F  Output formatted FF files?
         F  Output coherent turbulence time step file?
         T  Clockwise rotation when looking downwind?
 0 -  NONE  IEC turbulence models scaled to exact specified standard deviation


Turbine/Model Specifications:

        13  Vertical grid-point matrix dimension
        13  Horizontal grid-point matrix dimension
     0.050  Time step [seconds]
  3630.000  Analysis time [seconds]
  3630.000  Usable output time [seconds]
    90.000  Hub height [m]
   165.000  Grid height [m]
   165.000  Grid width [m]
     0.000  Vertical flow angle [degrees]
     0.000  Horizontal flow angle [degrees]


Meteorological Boundary Conditions:

    IECKAI  IEC Kaimal spectral model
         3  IEC standard: IEC 61400-3 Ed. 1: 2006
    11.000  Percent turbulence intensity, IEC 61400-3 Ed. 1: 2006
       NTM  IEC Normal Turbulence Model
       N/A  IEC Extreme Turbulence Model (ETM) "c" parameter [m/s]
       IEC  Wind profile type
    90.000  Reference height [m]
    40.000  Reference wind speed [m/s]
       N/A  Jet height [m]
     0.140  Power law exponent
     0.030  Surface roughness length [m]


Non-IEC Meteorological Boundary Conditions:

       N/A  Site latitude [degrees]
       N/A  Gradient Richardson number
       N/A  Friction or shear velocity [m/s]
       N/A  Mixing layer depth [m]
       N/A  Mean hub u'w' Reynolds stress
       N/A  Mean hub u'v' Reynolds stress
       N/A  Mean hub v'w' Reynolds stress


Spatial Coherence Models:

       IEC  u-component coherence model
      NONE  v-component coherence model
      NONE  w-component coherence model
(   12.000, 0.353E-03)  u-component coherence parameters
                   N/A  v-component coherence parameters
                   N/A  w-component coherence parameters
       N/A  Coherence exponent


You have requested that the following file(s) be generated:

   5_40.bts (AeroDyn/TurbSim full-field wind file)


Turbulence Simulation Scaling Parameter Summary:

   Turbulence model used                            =  IEC Kaimal
   Turbulence characteristic                        =  User-specified
   IEC standard                                     =  IEC 61400-3 Ed. 1: 2006
   Mean wind speed at hub height                    =   40.000 m/s
   Characteristic value of standard deviation       =    4.400 m/s
   Turbulence scale                                 =   42.000 m
   u-component integral scale                       =  340.200 m
   Coherency scale                                  =  340.200 m
   Characteristic value of hub turbulence intensity =   11.000%
   Gradient Richardson number                       =    0.000

   Wind profile type                                =  Power law on rotor disk, logarithmic elsewhere
   Power law exponent                               =    0.140
   Mean shear across rotor disk                     =    0.094 (m/s)/m
   Assumed rotor diameter                           =  165.000 m
   Surface roughness length                         =    0.030 m

   Nyquist frequency of turbulent wind field        =   10.000 Hz

   Number of time steps in the FFT                  =    72600
   Number of time steps output                      =    72600
   Number of points simulated                       =      169


Mean Flow Angles:

   Vertical   =   0.0 degrees
   Horizontal =   0.0 degrees

Mean Wind Speed Profile:

   Height    Wind Speed   Horizontal Angle  Vertical Angle  U-comp (X)   V-comp (Y)   W-comp (Z)
     (m)        (m/s)         (degrees)       (degrees)       (m/s)        (m/s)        (m/s)   
   ------    ----------   ----------------  --------------  ----------   ----------   ----------
    172.5       43.81            0.00            0.00         43.81         0.00         0.00
    158.8       43.31            0.00            0.00         43.31         0.00         0.00
    145.0       42.76            0.00            0.00         42.76         0.00         0.00
    131.2       42.17            0.00            0.00         42.17         0.00         0.00
    117.5       41.52            0.00            0.00         41.52         0.00         0.00
    103.8       40.80            0.00            0.00         40.80         0.00         0.00
     90.0       40.00            0.00            0.00         40.00         0.00         0.00
     76.2       39.08            0.00            0.00         39.08         0.00         0.00
     62.5       38.01            0.00            0.00         38.01         0.00         0.00
     48.8       36.71            0.00            0.00         36.71         0.00         0.00
     35.0       35.05            0.00            0.00         35.05         0.00         0.00
     21.2       32.68            0.00            0.00         32.68         0.00         0.00
      7.5       28.25            0.00            0.00         28.25         0.00         0.00


Harvested Random Seeds after Generation of the Random Numbers:

   1367762616 Harvested seed # 1
   1095836567 Harvested seed # 2


Hub-Height Simulated Turbulence Statistical Summary:

   Type of Wind        Min (m/s)   Mean (m/s)    Max (m/s)  Sigma (m/s)       TI (%)
   ----------------    ---------   ----------    ---------  -----------       ------
   Longitudinal (u)        19.97        40.00        58.29        4.569       11.422
   Lateral (v)            -14.90        -0.00        14.55        3.460        8.649
   Vertical (w)            -8.43         0.00         9.48        2.107        5.269
   U component             19.97        40.00        58.29        4.569       11.422
   V component            -14.90        -0.00        14.55        3.460        8.649
   W component             -8.43         0.00         9.48        2.107        5.269
   Horizontal (U&V)        20.20        40.15        58.29        4.559       11.355
   Total                   20.38        40.21        58.34        4.553       11.325

                       Min Reynolds     Mean Reynolds    Max Reynolds    Correlation
   Product             Stress (m/s)^2   Stress (m/s)^2   Stress (m/s)^2  Coefficient
   ----------------    --------------   --------------   --------------  -----------
   u'w'                   -102.439             0.105            98.342         0.011
   u'v'                   -123.265             0.003           125.147         0.000
   v'w'                    -75.104             0.012            64.633         0.002


   Friction Velocity (Ustar)  =      0.323 m/s
   Maximum Instantaneous TKE  =    208.949 (m/s)^2
   Maximum Instantaneous CTKE =     62.651 (m/s)^2


Grid Point Variance Summary:

   Y-coord  -82.50  -68.75  -55.00  -41.25  -27.50  -13.75    0.00   13.75   27.50   41.25   55.00   68.75   82.50

   Height   Standard deviation at grid points for the u component:
   172.50    4.305   4.396   4.346   4.261   4.364   4.399   4.473   4.454   4.420   4.450   4.407   4.376   4.446
   158.75    4.305   4.286   4.422   4.350   4.450   4.498   4.392   4.340   4.361   4.390   4.374   4.451   4.359
   145.00    4.282   4.313   4.400   4.456   4.379   4.339   4.397   4.398   4.418   4.437   4.407   4.477   4.463
   131.25    4.282   4.377   4.418   4.459   4.411   4.460   4.500   4.473   4.441   4.467   4.443   4.470   4.397
   117.50    4.295   4.318   4.362   4.439   4.469   4.540   4.424   4.478   4.488   4.475   4.455   4.428   4.512
   103.75    4.381   4.347   4.365   4.451   4.476   4.585   4.511   4.537   4.519   4.500   4.476   4.522   4.523
    90.00    4.409   4.375   4.534   4.470   4.554   4.637   4.569   4.592   4.648   4.549   4.500   4.544   4.647
    76.25    4.415   4.444   4.475   4.417   4.530   4.591   4.747   4.745   4.641   4.645   4.659   4.590   4.565
    62.50    4.493   4.454   4.442   4.528   4.416   4.568   4.652   4.699   4.725   4.662   4.620   4.534   4.620
    48.75    4.404   4.435   4.471   4.527   4.484   4.553   4.701   4.698   4.708   4.674   4.641   4.649   4.606
    35.00    4.390   4.317   4.385   4.459   4.516   4.606   4.641   4.596   4.643   4.543   4.632   4.714   4.524
    21.25    4.281   4.240   4.367   4.424   4.539   4.535   4.514   4.444   4.557   4.579   4.593   4.589   4.571
     7.50    4.355   4.279   4.332   4.402   4.431   4.473   4.447   4.420   4.401   4.513   4.542   4.579   4.541

   Height   Standard deviation at grid points for the v component:
   172.50    3.460   3.460   3.460   3.460   3.460   3.460   3.460   3.460   3.460   3.460   3.460   3.460   3.460
   158.75    3.460   3.460   3.460   3.460   3.460   3.460   3.460   3.460   3.460   3.460   3.460   3.460   3.460
   145.00    3.460   3.460   3.460   3.460   3.460   3.460   3.460   3.460   3.460   3.460   3.460   3.460   3.460
   131.25    3.460   3.460   3.460   3.460   3.460   3.460   3.460   3.460   3.460   3.460   3.460   3.460   3.460
   117.50    3.460   3.460   3.460   3.460   3.460   3.460   3.460   3.460   3.460   3.460   3.460   3.460   3.460
   103.75    3.460   3.460   3.460   3.460   3.460   3.460   3.460   3.460   3.460   3.460   3.460   3.460   3.460
    90.00    3.460   3.460   3.460   3.460   3.460   3.460   3.460   3.460   3.460   3.460   3.460   3.460   3.460
    76.25    3.460   3.460   3.460   3.460   3.460   3.460   3.460   3.460   3.460   3.460   3.460   3.460   3.460
    62.50    3.460   3.460   3.460   3.460   3.460   3.460   3.460   3.460   3.460   3.460   3.460   3.460   3.460
    48.75    3.460   3.460   3.460   3.460   3.460   3.460   3.460   3.460   3.460   3.460   3.460   3.460   3.460
    35.00    3.460   3.460   3.460   3.460   3.460   3.460   3.460   3.460   3.460   3.460   3.460   3.460   3.460
    21.25    3.460   3.460   3.460   3.460   3.460   3.460   3.460   3.460   3.460   3.460   3.460   3.460   3.460
     7.50    3.460   3.460   3.460   3.460   3.460   3.460   3.460   3.460   3.460   3.460   3.460   3.460   3.460

   Height   Standard deviation at grid points for the w component:
   172.50    2.107   2.107   2.107   2.107   2.107   2.107   2.107   2.107   2.107   2.107   2.107   2.107   2.107
   158.75    2.107   2.107   2.107   2.107   2.107   2.107   2.107   2.107   2.107   2.107   2.107   2.107   2.107
   145.00    2.107   2.107   2.107   2.107   2.107   2.107   2.107   2.107   2.107   2.107   2.107   2.107   2.107
   131.25    2.107   2.107   2.107   2.107   2.107   2.107   2.107   2.107   2.107   2.107   2.107   2.107   2.107
   117.50    2.107   2.107   2.107   2.107   2.107   2.107   2.107   2.107   2.107   2.107   2.107   2.107   2.107
   103.75    2.107   2.107   2.107   2.107   2.107   2.107   2.107   2.107   2.107   2.107   2.107   2.107   2.107
    90.00    2.107   2.107   2.107   2.107   2.107   2.107   2.107   2.107   2.107   2.107   2.107   2.107   2.107
    76.25    2.107   2.107   2.107   2.107   2.107   2.107   2.107   2.107   2.107   2.107   2.107   2.107   2.107
    62.50    2.107   2.107   2.107   2.107   2.107   2.107   2.107   2.107   2.107   2.107   2.107   2.107   2.107
    48.75    2.107   2.107   2.107   2.107   2.107   2.107   2.107   2.107   2.107   2.107   2.107   2.107   2.107
    35.00    2.107   2.107   2.107   2.107   2.107   2.107   2.107   2.107   2.107   2.107   2.107   2.107   2.107
    21.25    2.107   2.107   2.107   2.107   2.107   2.107   2.107   2.107   2.107   2.107   2.107   2.107   2.107
     7.50    2.107   2.107   2.107   2.107   2.107   2.107   2.107   2.107   2.107   2.107   2.107   2.107   2.107

   Mean standard deviation across all grid points:
      u component:    4.480 m/s
      v component:    3.460 m/s
      w component:    2.107 m/s


U-component (X) statistics from the interpolated hub point:

   Mean =  40.0000 m/s
   TI   =  11.4221 %


Processing complete.  16.406 CPU seconds used.
