
This summary file was generated by TurbSim (v2.00.07a-bjj, 14-Jun-2016) on 23-Mar-2020 at 10:33:44.


Runtime Options:

        51  Random seed #1
        52  Random seed #2
         F  Output binary HH turbulence parameters?
         F  Output formatted turbulence parameters?
         F  Output AeroDyn HH files?
         T  Output AeroDyn FF files?
         F  Output BLADED FF files?
         F  Output tower data?
         F  Output formatted FF files?
         F  Output coherent turbulence time step file?
         T  Clockwise rotation when looking downwind?
 0 -  NONE  IEC turbulence models scaled to exact specified standard deviation


Turbine/Model Specifications:

        13  Vertical grid-point matrix dimension
        13  Horizontal grid-point matrix dimension
     0.050  Time step [seconds]
  3630.000  Analysis time [seconds]
  3630.000  Usable output time [seconds]
    90.000  Hub height [m]
   165.000  Grid height [m]
   165.000  Grid width [m]
     0.000  Vertical flow angle [degrees]
     0.000  Horizontal flow angle [degrees]


Meteorological Boundary Conditions:

    IECKAI  IEC Kaimal spectral model
         3  IEC standard: IEC 61400-3 Ed. 1: 2006
    11.000  Percent turbulence intensity, IEC 61400-3 Ed. 1: 2006
       NTM  IEC Normal Turbulence Model
       N/A  IEC Extreme Turbulence Model (ETM) "c" parameter [m/s]
       IEC  Wind profile type
    90.000  Reference height [m]
    70.000  Reference wind speed [m/s]
       N/A  Jet height [m]
     0.140  Power law exponent
     0.030  Surface roughness length [m]


Non-IEC Meteorological Boundary Conditions:

       N/A  Site latitude [degrees]
       N/A  Gradient Richardson number
       N/A  Friction or shear velocity [m/s]
       N/A  Mixing layer depth [m]
       N/A  Mean hub u'w' Reynolds stress
       N/A  Mean hub u'v' Reynolds stress
       N/A  Mean hub v'w' Reynolds stress


Spatial Coherence Models:

       IEC  u-component coherence model
      NONE  v-component coherence model
      NONE  w-component coherence model
(   12.000, 0.353E-03)  u-component coherence parameters
                   N/A  v-component coherence parameters
                   N/A  w-component coherence parameters
       N/A  Coherence exponent


You have requested that the following file(s) be generated:

   5_70.bts (AeroDyn/TurbSim full-field wind file)


Turbulence Simulation Scaling Parameter Summary:

   Turbulence model used                            =  IEC Kaimal
   Turbulence characteristic                        =  User-specified
   IEC standard                                     =  IEC 61400-3 Ed. 1: 2006
   Mean wind speed at hub height                    =   70.000 m/s
   Characteristic value of standard deviation       =    7.700 m/s
   Turbulence scale                                 =   42.000 m
   u-component integral scale                       =  340.200 m
   Coherency scale                                  =  340.200 m
   Characteristic value of hub turbulence intensity =   11.000%
   Gradient Richardson number                       =    0.000

   Wind profile type                                =  Power law on rotor disk, logarithmic elsewhere
   Power law exponent                               =    0.140
   Mean shear across rotor disk                     =    0.165 (m/s)/m
   Assumed rotor diameter                           =  165.000 m
   Surface roughness length                         =    0.030 m

   Nyquist frequency of turbulent wind field        =   10.000 Hz

   Number of time steps in the FFT                  =    72600
   Number of time steps output                      =    72600
   Number of points simulated                       =      169


Mean Flow Angles:

   Vertical   =   0.0 degrees
   Horizontal =   0.0 degrees

Mean Wind Speed Profile:

   Height    Wind Speed   Horizontal Angle  Vertical Angle  U-comp (X)   V-comp (Y)   W-comp (Z)
     (m)        (m/s)         (degrees)       (degrees)       (m/s)        (m/s)        (m/s)   
   ------    ----------   ----------------  --------------  ----------   ----------   ----------
    172.5       76.68            0.00            0.00         76.68         0.00         0.00
    158.8       75.79            0.00            0.00         75.79         0.00         0.00
    145.0       74.83            0.00            0.00         74.83         0.00         0.00
    131.2       73.80            0.00            0.00         73.80         0.00         0.00
    117.5       72.66            0.00            0.00         72.66         0.00         0.00
    103.8       71.41            0.00            0.00         71.41         0.00         0.00
     90.0       70.00            0.00            0.00         70.00         0.00         0.00
     76.2       68.39            0.00            0.00         68.39         0.00         0.00
     62.5       66.52            0.00            0.00         66.52         0.00         0.00
     48.8       64.24            0.00            0.00         64.24         0.00         0.00
     35.0       61.33            0.00            0.00         61.33         0.00         0.00
     21.2       57.19            0.00            0.00         57.19         0.00         0.00
      7.5       49.43            0.00            0.00         49.43         0.00         0.00


Harvested Random Seeds after Generation of the Random Numbers:

   1367762616 Harvested seed # 1
   1095836567 Harvested seed # 2


Hub-Height Simulated Turbulence Statistical Summary:

   Type of Wind        Min (m/s)   Mean (m/s)    Max (m/s)  Sigma (m/s)       TI (%)
   ----------------    ---------   ----------    ---------  -----------       ------
   Longitudinal (u)        34.43        70.00       104.24        7.926       11.322
   Lateral (v)            -25.01        -0.00        25.22        6.011        8.587
   Vertical (w)           -14.62        -0.00        15.88        3.616        5.166
   U component             34.43        70.00       104.24        7.926       11.322
   V component            -25.01        -0.00        25.22        6.011        8.587
   W component            -14.62        -0.00        15.88        3.616        5.166
   Horizontal (U&V)        34.74        70.26       104.25        7.909       11.257
   Total                   34.95        70.35       104.33        7.899       11.228

                       Min Reynolds     Mean Reynolds    Max Reynolds    Correlation
   Product             Stress (m/s)^2   Stress (m/s)^2   Stress (m/s)^2  Coefficient
   ----------------    --------------   --------------   --------------  -----------
   u'w'                   -304.797             0.356           316.109         0.012
   u'v'                   -403.277            -0.086           393.306        -0.002
   v'w'                   -217.761            -0.004           186.528        -0.000


   Friction Velocity (Ustar)  =      0.596 m/s
   Maximum Instantaneous TKE  =    650.527 (m/s)^2
   Maximum Instantaneous CTKE =    209.155 (m/s)^2


Grid Point Variance Summary:

   Y-coord  -82.50  -68.75  -55.00  -41.25  -27.50  -13.75    0.00   13.75   27.50   41.25   55.00   68.75   82.50

   Height   Standard deviation at grid points for the u component:
   172.50    7.594   7.729   7.669   7.553   7.712   7.770   7.860   7.806   7.702   7.750   7.682   7.646   7.729
   158.75    7.560   7.565   7.748   7.658   7.807   7.899   7.746   7.651   7.633   7.675   7.655   7.752   7.621
   145.00    7.553   7.596   7.707   7.802   7.721   7.689   7.776   7.728   7.738   7.745   7.699   7.766   7.758
   131.25    7.588   7.695   7.773   7.825   7.799   7.886   7.911   7.833   7.755   7.773   7.764   7.776   7.665
   117.50    7.608   7.647   7.723   7.827   7.849   7.953   7.782   7.818   7.833   7.810   7.790   7.733   7.808
   103.75    7.694   7.631   7.671   7.806   7.826   7.989   7.869   7.886   7.864   7.803   7.818   7.878   7.879
    90.00    7.678   7.618   7.843   7.783   7.920   8.016   7.926   7.934   8.043   7.895   7.817   7.902   8.018
    76.25    7.680   7.736   7.802   7.703   7.862   7.913   8.111   8.106   7.996   8.005   8.001   7.925   7.918
    62.50    7.791   7.752   7.730   7.824   7.665   7.850   7.957   8.032   8.075   8.016   7.943   7.838   7.988
    48.75    7.649   7.706   7.731   7.804   7.726   7.833   8.030   8.056   8.085   8.021   7.951   7.966   7.933
    35.00    7.645   7.528   7.588   7.692   7.766   7.916   7.977   7.952   7.987   7.869   7.957   8.043   7.823
    21.25    7.511   7.438   7.578   7.667   7.813   7.826   7.810   7.730   7.896   7.905   7.899   7.870   7.828
     7.50    7.602   7.490   7.549   7.638   7.709   7.761   7.724   7.697   7.645   7.811   7.834   7.867   7.823

   Height   Standard deviation at grid points for the v component:
   172.50    6.011   6.011   6.011   6.011   6.011   6.011   6.011   6.011   6.011   6.011   6.011   6.011   6.011
   158.75    6.011   6.011   6.011   6.011   6.011   6.011   6.011   6.011   6.011   6.011   6.011   6.011   6.011
   145.00    6.011   6.011   6.011   6.011   6.011   6.011   6.011   6.011   6.011   6.011   6.011   6.011   6.011
   131.25    6.011   6.011   6.011   6.011   6.011   6.011   6.011   6.011   6.011   6.011   6.011   6.011   6.011
   117.50    6.011   6.011   6.011   6.011   6.011   6.011   6.011   6.011   6.011   6.011   6.011   6.011   6.011
   103.75    6.011   6.011   6.011   6.011   6.011   6.011   6.011   6.011   6.011   6.011   6.011   6.011   6.011
    90.00    6.011   6.011   6.011   6.011   6.011   6.011   6.011   6.011   6.011   6.011   6.011   6.011   6.011
    76.25    6.011   6.011   6.011   6.011   6.011   6.011   6.011   6.011   6.011   6.011   6.011   6.011   6.011
    62.50    6.011   6.011   6.011   6.011   6.011   6.011   6.011   6.011   6.011   6.011   6.011   6.011   6.011
    48.75    6.011   6.011   6.011   6.011   6.011   6.011   6.011   6.011   6.011   6.011   6.011   6.011   6.011
    35.00    6.011   6.011   6.011   6.011   6.011   6.011   6.011   6.011   6.011   6.011   6.011   6.011   6.011
    21.25    6.011   6.011   6.011   6.011   6.011   6.011   6.011   6.011   6.011   6.011   6.011   6.011   6.011
     7.50    6.011   6.011   6.011   6.011   6.011   6.011   6.011   6.011   6.011   6.011   6.011   6.011   6.011

   Height   Standard deviation at grid points for the w component:
   172.50    3.616   3.616   3.616   3.616   3.616   3.616   3.616   3.616   3.616   3.616   3.616   3.616   3.616
   158.75    3.616   3.616   3.616   3.616   3.616   3.616   3.616   3.616   3.616   3.616   3.616   3.616   3.616
   145.00    3.616   3.616   3.616   3.616   3.616   3.616   3.616   3.616   3.616   3.616   3.616   3.616   3.616
   131.25    3.616   3.616   3.616   3.616   3.616   3.616   3.616   3.616   3.616   3.616   3.616   3.616   3.616
   117.50    3.616   3.616   3.616   3.616   3.616   3.616   3.616   3.616   3.616   3.616   3.616   3.616   3.616
   103.75    3.616   3.616   3.616   3.616   3.616   3.616   3.616   3.616   3.616   3.616   3.616   3.616   3.616
    90.00    3.616   3.616   3.616   3.616   3.616   3.616   3.616   3.616   3.616   3.616   3.616   3.616   3.616
    76.25    3.616   3.616   3.616   3.616   3.616   3.616   3.616   3.616   3.616   3.616   3.616   3.616   3.616
    62.50    3.616   3.616   3.616   3.616   3.616   3.616   3.616   3.616   3.616   3.616   3.616   3.616   3.616
    48.75    3.616   3.616   3.616   3.616   3.616   3.616   3.616   3.616   3.616   3.616   3.616   3.616   3.616
    35.00    3.616   3.616   3.616   3.616   3.616   3.616   3.616   3.616   3.616   3.616   3.616   3.616   3.616
    21.25    3.616   3.616   3.616   3.616   3.616   3.616   3.616   3.616   3.616   3.616   3.616   3.616   3.616
     7.50    3.616   3.616   3.616   3.616   3.616   3.616   3.616   3.616   3.616   3.616   3.616   3.616   3.616

   Mean standard deviation across all grid points:
      u component:    7.793 m/s
      v component:    6.011 m/s
      w component:    3.616 m/s


U-component (X) statistics from the interpolated hub point:

   Mean =  70.0000 m/s
   TI   =  11.3223 %


Processing complete.  16.156 CPU seconds used.
