
This summary file was generated by TurbSim (v2.00.07a-bjj, 14-Jun-2016) on 23-Mar-2020 at 09:45:21.


Runtime Options:

        11  Random seed #1
        12  Random seed #2
         F  Output binary HH turbulence parameters?
         F  Output formatted turbulence parameters?
         F  Output AeroDyn HH files?
         T  Output AeroDyn FF files?
         F  Output BLADED FF files?
         F  Output tower data?
         F  Output formatted FF files?
         F  Output coherent turbulence time step file?
         T  Clockwise rotation when looking downwind?
 0 -  NONE  IEC turbulence models scaled to exact specified standard deviation


Turbine/Model Specifications:

        13  Vertical grid-point matrix dimension
        13  Horizontal grid-point matrix dimension
     0.050  Time step [seconds]
  3630.000  Analysis time [seconds]
  3630.000  Usable output time [seconds]
    90.000  Hub height [m]
   165.000  Grid height [m]
   165.000  Grid width [m]
     0.000  Vertical flow angle [degrees]
     0.000  Horizontal flow angle [degrees]


Meteorological Boundary Conditions:

    IECKAI  IEC Kaimal spectral model
         3  IEC standard: IEC 61400-3 Ed. 1: 2006
    11.000  Percent turbulence intensity, IEC 61400-3 Ed. 1: 2006
       NTM  IEC Normal Turbulence Model
       N/A  IEC Extreme Turbulence Model (ETM) "c" parameter [m/s]
       IEC  Wind profile type
    90.000  Reference height [m]
    40.000  Reference wind speed [m/s]
       N/A  Jet height [m]
     0.140  Power law exponent
     0.030  Surface roughness length [m]


Non-IEC Meteorological Boundary Conditions:

       N/A  Site latitude [degrees]
       N/A  Gradient Richardson number
       N/A  Friction or shear velocity [m/s]
       N/A  Mixing layer depth [m]
       N/A  Mean hub u'w' Reynolds stress
       N/A  Mean hub u'v' Reynolds stress
       N/A  Mean hub v'w' Reynolds stress


Spatial Coherence Models:

       IEC  u-component coherence model
      NONE  v-component coherence model
      NONE  w-component coherence model
(   12.000, 0.353E-03)  u-component coherence parameters
                   N/A  v-component coherence parameters
                   N/A  w-component coherence parameters
       N/A  Coherence exponent


You have requested that the following file(s) be generated:

   1_40.bts (AeroDyn/TurbSim full-field wind file)


Turbulence Simulation Scaling Parameter Summary:

   Turbulence model used                            =  IEC Kaimal
   Turbulence characteristic                        =  User-specified
   IEC standard                                     =  IEC 61400-3 Ed. 1: 2006
   Mean wind speed at hub height                    =   40.000 m/s
   Characteristic value of standard deviation       =    4.400 m/s
   Turbulence scale                                 =   42.000 m
   u-component integral scale                       =  340.200 m
   Coherency scale                                  =  340.200 m
   Characteristic value of hub turbulence intensity =   11.000%
   Gradient Richardson number                       =    0.000

   Wind profile type                                =  Power law on rotor disk, logarithmic elsewhere
   Power law exponent                               =    0.140
   Mean shear across rotor disk                     =    0.094 (m/s)/m
   Assumed rotor diameter                           =  165.000 m
   Surface roughness length                         =    0.030 m

   Nyquist frequency of turbulent wind field        =   10.000 Hz

   Number of time steps in the FFT                  =    72600
   Number of time steps output                      =    72600
   Number of points simulated                       =      169


Mean Flow Angles:

   Vertical   =   0.0 degrees
   Horizontal =   0.0 degrees

Mean Wind Speed Profile:

   Height    Wind Speed   Horizontal Angle  Vertical Angle  U-comp (X)   V-comp (Y)   W-comp (Z)
     (m)        (m/s)         (degrees)       (degrees)       (m/s)        (m/s)        (m/s)   
   ------    ----------   ----------------  --------------  ----------   ----------   ----------
    172.5       43.81            0.00            0.00         43.81         0.00         0.00
    158.8       43.31            0.00            0.00         43.31         0.00         0.00
    145.0       42.76            0.00            0.00         42.76         0.00         0.00
    131.2       42.17            0.00            0.00         42.17         0.00         0.00
    117.5       41.52            0.00            0.00         41.52         0.00         0.00
    103.8       40.80            0.00            0.00         40.80         0.00         0.00
     90.0       40.00            0.00            0.00         40.00         0.00         0.00
     76.2       39.08            0.00            0.00         39.08         0.00         0.00
     62.5       38.01            0.00            0.00         38.01         0.00         0.00
     48.8       36.71            0.00            0.00         36.71         0.00         0.00
     35.0       35.05            0.00            0.00         35.05         0.00         0.00
     21.2       32.68            0.00            0.00         32.68         0.00         0.00
      7.5       28.25            0.00            0.00         28.25         0.00         0.00


Harvested Random Seeds after Generation of the Random Numbers:

     42362498 Harvested seed # 1
    583267423 Harvested seed # 2


Hub-Height Simulated Turbulence Statistical Summary:

   Type of Wind        Min (m/s)   Mean (m/s)    Max (m/s)  Sigma (m/s)       TI (%)
   ----------------    ---------   ----------    ---------  -----------       ------
   Longitudinal (u)        23.48        40.00        60.01        4.333       10.833
   Lateral (v)            -12.48        -0.00        13.98        3.460        8.649
   Vertical (w)            -8.87         0.00         8.58        2.107        5.269
   U component             23.48        40.00        60.01        4.333       10.833
   V component            -12.48        -0.00        13.98        3.460        8.649
   W component             -8.87         0.00         8.58        2.107        5.269
   Horizontal (U&V)        23.51        40.15        60.24        4.324       10.770
   Total                   23.63        40.21        60.24        4.320       10.745

                       Min Reynolds     Mean Reynolds    Max Reynolds    Correlation
   Product             Stress (m/s)^2   Stress (m/s)^2   Stress (m/s)^2  Coefficient
   ----------------    --------------   --------------   --------------  -----------
   u'w'                   -146.606            -0.070            80.875        -0.008
   u'v'                   -180.720             0.175           134.582         0.012
   v'w'                    -68.581            -0.289            84.144        -0.040


   Friction Velocity (Ustar)  =      0.264 m/s
   Maximum Instantaneous TKE  =    213.960 (m/s)^2
   Maximum Instantaneous CTKE =     91.256 (m/s)^2


Grid Point Variance Summary:

   Y-coord  -82.50  -68.75  -55.00  -41.25  -27.50  -13.75    0.00   13.75   27.50   41.25   55.00   68.75   82.50

   Height   Standard deviation at grid points for the u component:
   172.50    4.483   4.487   4.460   4.487   4.423   4.447   4.465   4.422   4.336   4.365   4.288   4.282   4.301
   158.75    4.512   4.436   4.517   4.431   4.381   4.401   4.509   4.388   4.294   4.260   4.305   4.190   4.281
   145.00    4.523   4.448   4.481   4.416   4.326   4.374   4.375   4.424   4.340   4.315   4.309   4.303   4.302
   131.25    4.507   4.506   4.398   4.429   4.257   4.298   4.337   4.345   4.253   4.300   4.276   4.238   4.322
   117.50    4.528   4.418   4.450   4.330   4.259   4.259   4.334   4.415   4.375   4.289   4.254   4.374   4.360
   103.75    4.586   4.488   4.496   4.387   4.346   4.391   4.357   4.354   4.350   4.372   4.382   4.456   4.337
    90.00    4.569   4.464   4.438   4.416   4.351   4.348   4.333   4.342   4.350   4.299   4.258   4.313   4.393
    76.25    4.574   4.550   4.470   4.366   4.355   4.325   4.321   4.287   4.296   4.249   4.283   4.401   4.319
    62.50    4.493   4.483   4.469   4.490   4.474   4.354   4.304   4.318   4.326   4.298   4.311   4.282   4.214
    48.75    4.553   4.578   4.380   4.345   4.381   4.349   4.375   4.351   4.325   4.350   4.308   4.194   4.186
    35.00    4.458   4.449   4.375   4.394   4.326   4.332   4.327   4.402   4.331   4.327   4.243   4.186   4.236
    21.25    4.410   4.390   4.313   4.345   4.339   4.302   4.326   4.310   4.365   4.351   4.285   4.263   4.266
     7.50    4.355   4.313   4.342   4.370   4.326   4.393   4.323   4.332   4.292   4.345   4.347   4.355   4.312

   Height   Standard deviation at grid points for the v component:
   172.50    3.460   3.460   3.460   3.460   3.460   3.460   3.460   3.460   3.460   3.460   3.460   3.460   3.460
   158.75    3.460   3.460   3.460   3.460   3.460   3.460   3.460   3.460   3.460   3.460   3.460   3.460   3.460
   145.00    3.460   3.460   3.460   3.460   3.460   3.460   3.460   3.460   3.460   3.460   3.460   3.460   3.460
   131.25    3.460   3.460   3.460   3.460   3.460   3.460   3.460   3.460   3.460   3.460   3.460   3.460   3.460
   117.50    3.460   3.460   3.460   3.460   3.460   3.460   3.460   3.460   3.460   3.460   3.460   3.460   3.460
   103.75    3.460   3.460   3.460   3.460   3.460   3.460   3.460   3.460   3.460   3.460   3.460   3.460   3.460
    90.00    3.460   3.460   3.460   3.460   3.460   3.460   3.460   3.460   3.460   3.460   3.460   3.460   3.460
    76.25    3.460   3.460   3.460   3.460   3.460   3.460   3.460   3.460   3.460   3.460   3.460   3.460   3.460
    62.50    3.460   3.460   3.460   3.460   3.460   3.460   3.460   3.460   3.460   3.460   3.460   3.460   3.460
    48.75    3.460   3.460   3.460   3.460   3.460   3.460   3.460   3.460   3.460   3.460   3.460   3.460   3.460
    35.00    3.460   3.460   3.460   3.460   3.460   3.460   3.460   3.460   3.460   3.460   3.460   3.460   3.460
    21.25    3.460   3.460   3.460   3.460   3.460   3.460   3.460   3.460   3.460   3.460   3.460   3.460   3.460
     7.50    3.460   3.460   3.460   3.460   3.460   3.460   3.460   3.460   3.460   3.460   3.460   3.460   3.460

   Height   Standard deviation at grid points for the w component:
   172.50    2.107   2.107   2.107   2.107   2.107   2.107   2.107   2.107   2.107   2.107   2.107   2.107   2.107
   158.75    2.107   2.107   2.107   2.107   2.107   2.107   2.107   2.107   2.107   2.107   2.107   2.107   2.107
   145.00    2.107   2.107   2.107   2.107   2.107   2.107   2.107   2.107   2.107   2.107   2.107   2.107   2.107
   131.25    2.107   2.107   2.107   2.107   2.107   2.107   2.107   2.107   2.107   2.107   2.107   2.107   2.107
   117.50    2.107   2.107   2.107   2.107   2.107   2.107   2.107   2.107   2.107   2.107   2.107   2.107   2.107
   103.75    2.107   2.107   2.107   2.107   2.107   2.107   2.107   2.107   2.107   2.107   2.107   2.107   2.107
    90.00    2.107   2.107   2.107   2.107   2.107   2.107   2.107   2.107   2.107   2.107   2.107   2.107   2.107
    76.25    2.107   2.107   2.107   2.107   2.107   2.107   2.107   2.107   2.107   2.107   2.107   2.107   2.107
    62.50    2.107   2.107   2.107   2.107   2.107   2.107   2.107   2.107   2.107   2.107   2.107   2.107   2.107
    48.75    2.107   2.107   2.107   2.107   2.107   2.107   2.107   2.107   2.107   2.107   2.107   2.107   2.107
    35.00    2.107   2.107   2.107   2.107   2.107   2.107   2.107   2.107   2.107   2.107   2.107   2.107   2.107
    21.25    2.107   2.107   2.107   2.107   2.107   2.107   2.107   2.107   2.107   2.107   2.107   2.107   2.107
     7.50    2.107   2.107   2.107   2.107   2.107   2.107   2.107   2.107   2.107   2.107   2.107   2.107   2.107

   Mean standard deviation across all grid points:
      u component:    4.365 m/s
      v component:    3.460 m/s
      w component:    2.107 m/s


U-component (X) statistics from the interpolated hub point:

   Mean =  40.0000 m/s
   TI   =  10.8332 %


Processing complete.  16.438 CPU seconds used.
