
This summary file was generated by TurbSim (v2.00.07a-bjj, 14-Jun-2016) on 07-Sep-2020 at 11:44:47.


Runtime Options:

        61  Random seed #1
        62  Random seed #2
         F  Output binary HH turbulence parameters?
         F  Output formatted turbulence parameters?
         F  Output AeroDyn HH files?
         T  Output AeroDyn FF files?
         F  Output BLADED FF files?
         F  Output tower data?
         F  Output formatted FF files?
         F  Output coherent turbulence time step file?
         T  Clockwise rotation when looking downwind?
 0 -  NONE  IEC turbulence models scaled to exact specified standard deviation


Turbine/Model Specifications:

        13  Vertical grid-point matrix dimension
        13  Horizontal grid-point matrix dimension
     0.050  Time step [seconds]
  3630.000  Analysis time [seconds]
  3630.000  Usable output time [seconds]
    90.000  Hub height [m]
   165.000  Grid height [m]
   165.000  Grid width [m]
     0.000  Vertical flow angle [degrees]
     0.000  Horizontal flow angle [degrees]


Meteorological Boundary Conditions:

    IECKAI  IEC Kaimal spectral model
         3  IEC standard: IEC 61400-3 Ed. 1: 2006
         B  IEC turbulence characteristic
       NTM  IEC Normal Turbulence Model
       N/A  IEC Extreme Turbulence Model (ETM) "c" parameter [m/s]
       IEC  Wind profile type
    90.000  Reference height [m]
    11.400  Reference wind speed [m/s]
       N/A  Jet height [m]
     0.140  Power law exponent
     0.030  Surface roughness length [m]


Non-IEC Meteorological Boundary Conditions:

       N/A  Site latitude [degrees]
       N/A  Gradient Richardson number
       N/A  Friction or shear velocity [m/s]
       N/A  Mixing layer depth [m]
       N/A  Mean hub u'w' Reynolds stress
       N/A  Mean hub u'v' Reynolds stress
       N/A  Mean hub v'w' Reynolds stress


Spatial Coherence Models:

       IEC  u-component coherence model
      NONE  v-component coherence model
      NONE  w-component coherence model
(   12.000, 0.353E-03)  u-component coherence parameters
                   N/A  v-component coherence parameters
                   N/A  w-component coherence parameters
       N/A  Coherence exponent


You have requested that the following file(s) be generated:

   6_11-4.bts (AeroDyn/TurbSim full-field wind file)


Turbulence Simulation Scaling Parameter Summary:

   Turbulence model used                            =  IEC Kaimal
   Turbulence characteristic                        =  B
   IEC turbulence type                              =  Normal Turbulence Model
   IEC standard                                     =  IEC 61400-3 Ed. 1: 2006
   Mean wind speed at hub height                    =   11.400 m/s
   Expected value of turbulence intensity at 15 m/s =   14.000%
   Characteristic value of standard deviation       =    1.981 m/s
   Turbulence scale                                 =   42.000 m
   u-component integral scale                       =  340.200 m
   Coherency scale                                  =  340.200 m
   Characteristic value of hub turbulence intensity =   17.377%
   Gradient Richardson number                       =    0.000

   Wind profile type                                =  Power law on rotor disk, logarithmic elsewhere
   Power law exponent                               =    0.140
   Mean shear across rotor disk                     =    0.027 (m/s)/m
   Assumed rotor diameter                           =  165.000 m
   Surface roughness length                         =    0.030 m

   Nyquist frequency of turbulent wind field        =   10.000 Hz

   Number of time steps in the FFT                  =    72600
   Number of time steps output                      =    72600
   Number of points simulated                       =      169


Mean Flow Angles:

   Vertical   =   0.0 degrees
   Horizontal =   0.0 degrees

Mean Wind Speed Profile:

   Height    Wind Speed   Horizontal Angle  Vertical Angle  U-comp (X)   V-comp (Y)   W-comp (Z)
     (m)        (m/s)         (degrees)       (degrees)       (m/s)        (m/s)        (m/s)   
   ------    ----------   ----------------  --------------  ----------   ----------   ----------
    172.5       12.49            0.00            0.00         12.49         0.00         0.00
    158.8       12.34            0.00            0.00         12.34         0.00         0.00
    145.0       12.19            0.00            0.00         12.19         0.00         0.00
    131.2       12.02            0.00            0.00         12.02         0.00         0.00
    117.5       11.83            0.00            0.00         11.83         0.00         0.00
    103.8       11.63            0.00            0.00         11.63         0.00         0.00
     90.0       11.40            0.00            0.00         11.40         0.00         0.00
     76.2       11.14            0.00            0.00         11.14         0.00         0.00
     62.5       10.83            0.00            0.00         10.83         0.00         0.00
     48.8       10.46            0.00            0.00         10.46         0.00         0.00
     35.0        9.99            0.00            0.00          9.99         0.00         0.00
     21.2        9.31            0.00            0.00          9.31         0.00         0.00
      7.5        8.05            0.00            0.00          8.05         0.00         0.00


Harvested Random Seeds after Generation of the Random Numbers:

    625370864 Harvested seed # 1
   1223978853 Harvested seed # 2


Hub-Height Simulated Turbulence Statistical Summary:

   Type of Wind        Min (m/s)   Mean (m/s)    Max (m/s)  Sigma (m/s)       TI (%)
   ----------------    ---------   ----------    ---------  -----------       ------
   Longitudinal (u)         4.58        11.40        18.92        1.924       16.873
   Lateral (v)             -5.95         0.00         7.57        1.569       13.765
   Vertical (w)            -3.77        -0.00         4.10        0.972        8.525
   U component              4.58        11.40        18.92        1.924       16.873
   V component             -5.95         0.00         7.57        1.569       13.765
   W component             -3.77        -0.00         4.10        0.972        8.525
   Horizontal (U&V)         4.61        11.51        18.92        1.913       16.618
   Total                    4.61        11.55        18.92        1.907       16.507

                       Min Reynolds     Mean Reynolds    Max Reynolds    Correlation
   Product             Stress (m/s)^2   Stress (m/s)^2   Stress (m/s)^2  Coefficient
   ----------------    --------------   --------------   --------------  -----------
   u'w'                    -17.434            -0.044            13.324        -0.023
   u'v'                    -19.710             0.241            22.826         0.080
   v'w'                    -20.117            -0.053            11.250        -0.035


   Friction Velocity (Ustar)  =      0.209 m/s
   Maximum Instantaneous TKE  =     29.741 (m/s)^2
   Maximum Instantaneous CTKE =     12.056 (m/s)^2


Grid Point Variance Summary:

   Y-coord  -82.50  -68.75  -55.00  -41.25  -27.50  -13.75    0.00   13.75   27.50   41.25   55.00   68.75   82.50

   Height   Standard deviation at grid points for the u component:
   172.50    1.945   1.959   2.007   2.095   2.083   2.061   2.087   2.109   2.127   2.215   2.282   2.192   2.085
   158.75    1.962   1.971   2.054   2.110   2.002   2.034   2.018   2.017   2.046   2.174   2.228   2.184   2.160
   145.00    1.971   2.001   2.078   2.035   2.096   2.024   2.021   2.027   2.022   2.171   2.163   2.098   2.079
   131.25    2.058   2.082   2.086   1.967   2.013   2.050   2.041   1.955   1.974   1.991   2.014   2.022   2.061
   117.50    2.051   2.065   2.011   2.047   2.001   2.035   1.971   1.928   2.033   2.037   2.053   2.044   2.110
   103.75    2.010   2.044   2.006   1.980   2.035   1.998   1.925   1.975   2.005   2.089   2.008   2.020   2.057
    90.00    1.963   1.965   1.959   1.914   1.975   1.942   1.924   1.989   2.014   2.030   2.053   1.985   2.005
    76.25    1.952   1.922   1.884   1.892   1.815   1.866   1.883   1.895   1.989   1.963   2.037   1.954   1.942
    62.50    1.948   1.880   1.796   1.776   1.798   1.814   1.928   1.940   2.026   1.979   1.943   1.913   1.916
    48.75    1.914   1.807   1.798   1.817   1.824   1.867   1.933   1.952   1.971   1.957   1.991   1.900   1.904
    35.00    1.862   1.873   1.795   1.805   1.841   1.877   1.868   1.852   1.942   1.957   2.003   1.935   1.931
    21.25    1.924   1.884   1.819   1.796   1.806   1.844   1.861   1.889   1.919   1.944   2.055   1.964   1.963
     7.50    1.958   1.923   1.810   1.820   1.868   1.839   1.858   1.917   1.926   1.998   2.013   2.021   1.969

   Height   Standard deviation at grid points for the v component:
   172.50    1.569   1.569   1.569   1.569   1.569   1.569   1.569   1.569   1.569   1.569   1.569   1.569   1.569
   158.75    1.569   1.569   1.569   1.569   1.569   1.569   1.569   1.569   1.569   1.569   1.569   1.569   1.569
   145.00    1.569   1.569   1.569   1.569   1.569   1.569   1.569   1.569   1.569   1.569   1.569   1.569   1.569
   131.25    1.569   1.569   1.569   1.569   1.569   1.569   1.569   1.569   1.569   1.569   1.569   1.569   1.569
   117.50    1.569   1.569   1.569   1.569   1.569   1.569   1.569   1.569   1.569   1.569   1.569   1.569   1.569
   103.75    1.569   1.569   1.569   1.569   1.569   1.569   1.569   1.569   1.569   1.569   1.569   1.569   1.569
    90.00    1.569   1.569   1.569   1.569   1.569   1.569   1.569   1.569   1.569   1.569   1.569   1.569   1.569
    76.25    1.569   1.569   1.569   1.569   1.569   1.569   1.569   1.569   1.569   1.569   1.569   1.569   1.569
    62.50    1.569   1.569   1.569   1.569   1.569   1.569   1.569   1.569   1.569   1.569   1.569   1.569   1.569
    48.75    1.569   1.569   1.569   1.569   1.569   1.569   1.569   1.569   1.569   1.569   1.569   1.569   1.569
    35.00    1.569   1.569   1.569   1.569   1.569   1.569   1.569   1.569   1.569   1.569   1.569   1.569   1.569
    21.25    1.569   1.569   1.569   1.569   1.569   1.569   1.569   1.569   1.569   1.569   1.569   1.569   1.569
     7.50    1.569   1.569   1.569   1.569   1.569   1.569   1.569   1.569   1.569   1.569   1.569   1.569   1.569

   Height   Standard deviation at grid points for the w component:
   172.50    0.972   0.972   0.972   0.972   0.972   0.972   0.972   0.972   0.972   0.972   0.972   0.972   0.972
   158.75    0.972   0.972   0.972   0.972   0.972   0.972   0.972   0.972   0.972   0.972   0.972   0.972   0.972
   145.00    0.972   0.972   0.972   0.972   0.972   0.972   0.972   0.972   0.972   0.972   0.972   0.972   0.972
   131.25    0.972   0.972   0.972   0.972   0.972   0.972   0.972   0.972   0.972   0.972   0.972   0.972   0.972
   117.50    0.972   0.972   0.972   0.972   0.972   0.972   0.972   0.972   0.972   0.972   0.972   0.972   0.972
   103.75    0.972   0.972   0.972   0.972   0.972   0.972   0.972   0.972   0.972   0.972   0.972   0.972   0.972
    90.00    0.972   0.972   0.972   0.972   0.972   0.972   0.972   0.972   0.972   0.972   0.972   0.972   0.972
    76.25    0.972   0.972   0.972   0.972   0.972   0.972   0.972   0.972   0.972   0.972   0.972   0.972   0.972
    62.50    0.972   0.972   0.972   0.972   0.972   0.972   0.972   0.972   0.972   0.972   0.972   0.972   0.972
    48.75    0.972   0.972   0.972   0.972   0.972   0.972   0.972   0.972   0.972   0.972   0.972   0.972   0.972
    35.00    0.972   0.972   0.972   0.972   0.972   0.972   0.972   0.972   0.972   0.972   0.972   0.972   0.972
    21.25    0.972   0.972   0.972   0.972   0.972   0.972   0.972   0.972   0.972   0.972   0.972   0.972   0.972
     7.50    0.972   0.972   0.972   0.972   0.972   0.972   0.972   0.972   0.972   0.972   0.972   0.972   0.972

   Mean standard deviation across all grid points:
      u component:    1.976 m/s
      v component:    1.569 m/s
      w component:    0.972 m/s


U-component (X) statistics from the interpolated hub point:

   Mean =  11.4000 m/s
   TI   =  16.8730 %


Processing complete.  16.594 CPU seconds used.
