
This summary file was generated by TurbSim (v2.00.07a-bjj, 14-Jun-2016) on 23-Mar-2020 at 10:16:47.


Runtime Options:

        31  Random seed #1
        32  Random seed #2
         F  Output binary HH turbulence parameters?
         F  Output formatted turbulence parameters?
         F  Output AeroDyn HH files?
         T  Output AeroDyn FF files?
         F  Output BLADED FF files?
         F  Output tower data?
         F  Output formatted FF files?
         F  Output coherent turbulence time step file?
         T  Clockwise rotation when looking downwind?
 0 -  NONE  IEC turbulence models scaled to exact specified standard deviation


Turbine/Model Specifications:

        13  Vertical grid-point matrix dimension
        13  Horizontal grid-point matrix dimension
     0.050  Time step [seconds]
  3630.000  Analysis time [seconds]
  3630.000  Usable output time [seconds]
    90.000  Hub height [m]
   165.000  Grid height [m]
   165.000  Grid width [m]
     0.000  Vertical flow angle [degrees]
     0.000  Horizontal flow angle [degrees]


Meteorological Boundary Conditions:

    IECKAI  IEC Kaimal spectral model
         3  IEC standard: IEC 61400-3 Ed. 1: 2006
    11.000  Percent turbulence intensity, IEC 61400-3 Ed. 1: 2006
       NTM  IEC Normal Turbulence Model
       N/A  IEC Extreme Turbulence Model (ETM) "c" parameter [m/s]
       IEC  Wind profile type
    90.000  Reference height [m]
    75.000  Reference wind speed [m/s]
       N/A  Jet height [m]
     0.140  Power law exponent
     0.030  Surface roughness length [m]


Non-IEC Meteorological Boundary Conditions:

       N/A  Site latitude [degrees]
       N/A  Gradient Richardson number
       N/A  Friction or shear velocity [m/s]
       N/A  Mixing layer depth [m]
       N/A  Mean hub u'w' Reynolds stress
       N/A  Mean hub u'v' Reynolds stress
       N/A  Mean hub v'w' Reynolds stress


Spatial Coherence Models:

       IEC  u-component coherence model
      NONE  v-component coherence model
      NONE  w-component coherence model
(   12.000, 0.353E-03)  u-component coherence parameters
                   N/A  v-component coherence parameters
                   N/A  w-component coherence parameters
       N/A  Coherence exponent


You have requested that the following file(s) be generated:

   3_75.bts (AeroDyn/TurbSim full-field wind file)


Turbulence Simulation Scaling Parameter Summary:

   Turbulence model used                            =  IEC Kaimal
   Turbulence characteristic                        =  User-specified
   IEC standard                                     =  IEC 61400-3 Ed. 1: 2006
   Mean wind speed at hub height                    =   75.000 m/s
   Characteristic value of standard deviation       =    8.250 m/s
   Turbulence scale                                 =   42.000 m
   u-component integral scale                       =  340.200 m
   Coherency scale                                  =  340.200 m
   Characteristic value of hub turbulence intensity =   11.000%
   Gradient Richardson number                       =    0.000

   Wind profile type                                =  Power law on rotor disk, logarithmic elsewhere
   Power law exponent                               =    0.140
   Mean shear across rotor disk                     =    0.177 (m/s)/m
   Assumed rotor diameter                           =  165.000 m
   Surface roughness length                         =    0.030 m

   Nyquist frequency of turbulent wind field        =   10.000 Hz

   Number of time steps in the FFT                  =    72600
   Number of time steps output                      =    72600
   Number of points simulated                       =      169


Mean Flow Angles:

   Vertical   =   0.0 degrees
   Horizontal =   0.0 degrees

Mean Wind Speed Profile:

   Height    Wind Speed   Horizontal Angle  Vertical Angle  U-comp (X)   V-comp (Y)   W-comp (Z)
     (m)        (m/s)         (degrees)       (degrees)       (m/s)        (m/s)        (m/s)   
   ------    ----------   ----------------  --------------  ----------   ----------   ----------
    172.5       82.15            0.00            0.00         82.15         0.00         0.00
    158.8       81.20            0.00            0.00         81.20         0.00         0.00
    145.0       80.18            0.00            0.00         80.18         0.00         0.00
    131.2       79.07            0.00            0.00         79.07         0.00         0.00
    117.5       77.85            0.00            0.00         77.85         0.00         0.00
    103.8       76.51            0.00            0.00         76.51         0.00         0.00
     90.0       75.00            0.00            0.00         75.00         0.00         0.00
     76.2       73.28            0.00            0.00         73.28         0.00         0.00
     62.5       71.27            0.00            0.00         71.27         0.00         0.00
     48.8       68.83            0.00            0.00         68.83         0.00         0.00
     35.0       65.71            0.00            0.00         65.71         0.00         0.00
     21.2       61.28            0.00            0.00         61.28         0.00         0.00
      7.5       52.96            0.00            0.00         52.96         0.00         0.00


Harvested Random Seeds after Generation of the Random Numbers:

    705062557 Harvested seed # 1
    839551995 Harvested seed # 2


Hub-Height Simulated Turbulence Statistical Summary:

   Type of Wind        Min (m/s)   Mean (m/s)    Max (m/s)  Sigma (m/s)       TI (%)
   ----------------    ---------   ----------    ---------  -----------       ------
   Longitudinal (u)        45.30        75.00       105.82        7.944       10.592
   Lateral (v)            -28.44        -0.00        27.52        6.433        8.577
   Vertical (w)           -16.70        -0.00        16.37        3.862        5.150
   U component             45.30        75.00       105.82        7.944       10.592
   V component            -28.44        -0.00        27.52        6.433        8.577
   W component            -16.70        -0.00        16.37        3.862        5.150
   Horizontal (U&V)        45.39        75.28       106.03        7.922       10.524
   Total                   45.39        75.38       106.04        7.914       10.499

                       Min Reynolds     Mean Reynolds    Max Reynolds    Correlation
   Product             Stress (m/s)^2   Stress (m/s)^2   Stress (m/s)^2  Coefficient
   ----------------    --------------   --------------   --------------  -----------
   u'w'                   -283.897             0.024           303.931         0.001
   u'v'                   -429.725            -0.480           507.265        -0.009
   v'w'                   -227.176             0.016           224.166         0.001


   Friction Velocity (Ustar)  =      0.155 m/s
   Maximum Instantaneous TKE  =    517.302 (m/s)^2
   Maximum Instantaneous CTKE =    262.759 (m/s)^2


Grid Point Variance Summary:

   Y-coord  -82.50  -68.75  -55.00  -41.25  -27.50  -13.75    0.00   13.75   27.50   41.25   55.00   68.75   82.50

   Height   Standard deviation at grid points for the u component:
   172.50    7.878   7.870   7.940   8.073   8.160   8.071   8.066   7.848   7.935   8.007   8.077   8.221   8.086
   158.75    7.875   7.712   7.759   7.899   7.993   8.007   7.912   7.790   7.843   8.036   8.172   8.235   8.120
   145.00    7.876   7.777   7.771   7.802   7.797   7.981   7.843   7.764   7.900   8.013   8.160   8.230   8.189
   131.25    7.826   7.845   7.756   7.692   7.819   7.911   7.909   7.905   7.997   8.121   8.291   8.289   8.182
   117.50    7.805   7.752   7.761   7.695   7.846   7.841   7.986   7.957   8.192   8.320   8.293   8.316   8.244
   103.75    7.850   7.701   7.828   7.769   7.829   7.834   7.982   8.017   8.096   8.208   8.172   8.108   8.142
    90.00    7.943   7.901   7.847   7.741   7.736   7.850   7.944   7.933   8.021   8.152   8.282   8.168   8.107
    76.25    7.940   7.888   7.888   7.879   7.915   8.016   8.080   7.952   8.043   8.155   8.290   8.148   8.171
    62.50    8.090   8.054   7.911   8.090   8.168   8.135   8.185   8.087   8.160   8.130   8.101   8.278   8.297
    48.75    8.023   8.017   8.024   8.208   8.183   8.247   8.118   8.088   8.108   8.180   8.153   8.169   8.178
    35.00    8.055   8.060   8.141   8.273   8.286   8.180   8.151   8.192   8.255   8.258   8.166   8.211   8.092
    21.25    8.227   8.185   8.215   8.270   8.322   8.285   8.200   8.120   8.198   8.271   8.280   8.214   8.087
     7.50    8.141   8.188   8.196   8.320   8.344   8.296   8.317   8.332   8.241   8.187   8.269   8.134   8.172

   Height   Standard deviation at grid points for the v component:
   172.50    6.433   6.433   6.433   6.433   6.433   6.433   6.433   6.433   6.433   6.433   6.433   6.433   6.433
   158.75    6.433   6.433   6.433   6.433   6.433   6.433   6.433   6.433   6.433   6.433   6.433   6.433   6.433
   145.00    6.433   6.433   6.433   6.433   6.433   6.433   6.433   6.433   6.433   6.433   6.433   6.433   6.433
   131.25    6.433   6.433   6.433   6.433   6.433   6.433   6.433   6.433   6.433   6.433   6.433   6.433   6.433
   117.50    6.433   6.433   6.433   6.433   6.433   6.433   6.433   6.433   6.433   6.433   6.433   6.433   6.433
   103.75    6.433   6.433   6.433   6.433   6.433   6.433   6.433   6.433   6.433   6.433   6.433   6.433   6.433
    90.00    6.433   6.433   6.433   6.433   6.433   6.433   6.433   6.433   6.433   6.433   6.433   6.433   6.433
    76.25    6.433   6.433   6.433   6.433   6.433   6.433   6.433   6.433   6.433   6.433   6.433   6.433   6.433
    62.50    6.433   6.433   6.433   6.433   6.433   6.433   6.433   6.433   6.433   6.433   6.433   6.433   6.433
    48.75    6.433   6.433   6.433   6.433   6.433   6.433   6.433   6.433   6.433   6.433   6.433   6.433   6.433
    35.00    6.433   6.433   6.433   6.433   6.433   6.433   6.433   6.433   6.433   6.433   6.433   6.433   6.433
    21.25    6.433   6.433   6.433   6.433   6.433   6.433   6.433   6.433   6.433   6.433   6.433   6.433   6.433
     7.50    6.433   6.433   6.433   6.433   6.433   6.433   6.433   6.433   6.433   6.433   6.433   6.433   6.433

   Height   Standard deviation at grid points for the w component:
   172.50    3.862   3.862   3.862   3.862   3.862   3.862   3.862   3.862   3.862   3.862   3.862   3.862   3.862
   158.75    3.862   3.862   3.862   3.862   3.862   3.862   3.862   3.862   3.862   3.862   3.862   3.862   3.862
   145.00    3.862   3.862   3.862   3.862   3.862   3.862   3.862   3.862   3.862   3.862   3.862   3.862   3.862
   131.25    3.862   3.862   3.862   3.862   3.862   3.862   3.862   3.862   3.862   3.862   3.862   3.862   3.862
   117.50    3.862   3.862   3.862   3.862   3.862   3.862   3.862   3.862   3.862   3.862   3.862   3.862   3.862
   103.75    3.862   3.862   3.862   3.862   3.862   3.862   3.862   3.862   3.862   3.862   3.862   3.862   3.862
    90.00    3.862   3.862   3.862   3.862   3.862   3.862   3.862   3.862   3.862   3.862   3.862   3.862   3.862
    76.25    3.862   3.862   3.862   3.862   3.862   3.862   3.862   3.862   3.862   3.862   3.862   3.862   3.862
    62.50    3.862   3.862   3.862   3.862   3.862   3.862   3.862   3.862   3.862   3.862   3.862   3.862   3.862
    48.75    3.862   3.862   3.862   3.862   3.862   3.862   3.862   3.862   3.862   3.862   3.862   3.862   3.862
    35.00    3.862   3.862   3.862   3.862   3.862   3.862   3.862   3.862   3.862   3.862   3.862   3.862   3.862
    21.25    3.862   3.862   3.862   3.862   3.862   3.862   3.862   3.862   3.862   3.862   3.862   3.862   3.862
     7.50    3.862   3.862   3.862   3.862   3.862   3.862   3.862   3.862   3.862   3.862   3.862   3.862   3.862

   Mean standard deviation across all grid points:
      u component:    8.056 m/s
      v component:    6.433 m/s
      w component:    3.862 m/s


U-component (X) statistics from the interpolated hub point:

   Mean =  75.0000 m/s
   TI   =  10.5916 %


Processing complete.  15.906 CPU seconds used.
