
This summary file was generated by TurbSim (v2.00.07a-bjj, 14-Jun-2016) on 23-Mar-2020 at 10:18:18.


Runtime Options:

        31  Random seed #1
        32  Random seed #2
         F  Output binary HH turbulence parameters?
         F  Output formatted turbulence parameters?
         F  Output AeroDyn HH files?
         T  Output AeroDyn FF files?
         F  Output BLADED FF files?
         F  Output tower data?
         F  Output formatted FF files?
         F  Output coherent turbulence time step file?
         T  Clockwise rotation when looking downwind?
 0 -  NONE  IEC turbulence models scaled to exact specified standard deviation


Turbine/Model Specifications:

        13  Vertical grid-point matrix dimension
        13  Horizontal grid-point matrix dimension
     0.050  Time step [seconds]
  3630.000  Analysis time [seconds]
  3630.000  Usable output time [seconds]
    90.000  Hub height [m]
   165.000  Grid height [m]
   165.000  Grid width [m]
     0.000  Vertical flow angle [degrees]
     0.000  Horizontal flow angle [degrees]


Meteorological Boundary Conditions:

    IECKAI  IEC Kaimal spectral model
         3  IEC standard: IEC 61400-3 Ed. 1: 2006
    11.000  Percent turbulence intensity, IEC 61400-3 Ed. 1: 2006
       NTM  IEC Normal Turbulence Model
       N/A  IEC Extreme Turbulence Model (ETM) "c" parameter [m/s]
       IEC  Wind profile type
    90.000  Reference height [m]
    95.000  Reference wind speed [m/s]
       N/A  Jet height [m]
     0.140  Power law exponent
     0.030  Surface roughness length [m]


Non-IEC Meteorological Boundary Conditions:

       N/A  Site latitude [degrees]
       N/A  Gradient Richardson number
       N/A  Friction or shear velocity [m/s]
       N/A  Mixing layer depth [m]
       N/A  Mean hub u'w' Reynolds stress
       N/A  Mean hub u'v' Reynolds stress
       N/A  Mean hub v'w' Reynolds stress


Spatial Coherence Models:

       IEC  u-component coherence model
      NONE  v-component coherence model
      NONE  w-component coherence model
(   12.000, 0.353E-03)  u-component coherence parameters
                   N/A  v-component coherence parameters
                   N/A  w-component coherence parameters
       N/A  Coherence exponent


You have requested that the following file(s) be generated:

   3_95.bts (AeroDyn/TurbSim full-field wind file)


Turbulence Simulation Scaling Parameter Summary:

   Turbulence model used                            =  IEC Kaimal
   Turbulence characteristic                        =  User-specified
   IEC standard                                     =  IEC 61400-3 Ed. 1: 2006
   Mean wind speed at hub height                    =   95.000 m/s
   Characteristic value of standard deviation       =   10.450 m/s
   Turbulence scale                                 =   42.000 m
   u-component integral scale                       =  340.200 m
   Coherency scale                                  =  340.200 m
   Characteristic value of hub turbulence intensity =   11.000%
   Gradient Richardson number                       =    0.000

   Wind profile type                                =  Power law on rotor disk, logarithmic elsewhere
   Power law exponent                               =    0.140
   Mean shear across rotor disk                     =    0.224 (m/s)/m
   Assumed rotor diameter                           =  165.000 m
   Surface roughness length                         =    0.030 m

   Nyquist frequency of turbulent wind field        =   10.000 Hz

   Number of time steps in the FFT                  =    72600
   Number of time steps output                      =    72600
   Number of points simulated                       =      169


Mean Flow Angles:

   Vertical   =   0.0 degrees
   Horizontal =   0.0 degrees

Mean Wind Speed Profile:

   Height    Wind Speed   Horizontal Angle  Vertical Angle  U-comp (X)   V-comp (Y)   W-comp (Z)
     (m)        (m/s)         (degrees)       (degrees)       (m/s)        (m/s)        (m/s)   
   ------    ----------   ----------------  --------------  ----------   ----------   ----------
    172.5      104.06            0.00            0.00        104.06         0.00         0.00
    158.8      102.86            0.00            0.00        102.86         0.00         0.00
    145.0      101.56            0.00            0.00        101.56         0.00         0.00
    131.2      100.15            0.00            0.00        100.15         0.00         0.00
    117.5       98.61            0.00            0.00         98.61         0.00         0.00
    103.8       96.91            0.00            0.00         96.91         0.00         0.00
     90.0       95.00            0.00            0.00         95.00         0.00         0.00
     76.2       92.82            0.00            0.00         92.82         0.00         0.00
     62.5       90.27            0.00            0.00         90.27         0.00         0.00
     48.8       87.19            0.00            0.00         87.19         0.00         0.00
     35.0       83.23            0.00            0.00         83.23         0.00         0.00
     21.2       77.62            0.00            0.00         77.62         0.00         0.00
      7.5       67.09            0.00            0.00         67.09         0.00         0.00


Harvested Random Seeds after Generation of the Random Numbers:

    705062557 Harvested seed # 1
    839551995 Harvested seed # 2


Hub-Height Simulated Turbulence Statistical Summary:

   Type of Wind        Min (m/s)   Mean (m/s)    Max (m/s)  Sigma (m/s)       TI (%)
   ----------------    ---------   ----------    ---------  -----------       ------
   Longitudinal (u)        56.42        95.00       134.44       10.061       10.591
   Lateral (v)            -35.99        -0.00        34.99        8.113        8.540
   Vertical (w)           -20.77        -0.00        20.62        4.837        5.091
   U component             56.42        95.00       134.44       10.061       10.591
   V component            -35.99        -0.00        34.99        8.113        8.540
   W component            -20.77        -0.00        20.62        4.837        5.091
   Horizontal (U&V)        56.58        95.35       134.44       10.033       10.523
   Total                   56.58        95.47       134.44       10.023       10.499

                       Min Reynolds     Mean Reynolds    Max Reynolds    Correlation
   Product             Stress (m/s)^2   Stress (m/s)^2   Stress (m/s)^2  Coefficient
   ----------------    --------------   --------------   --------------  -----------
   u'w'                   -447.542            -0.015           480.554        -0.000
   u'v'                   -670.366            -0.568           813.026        -0.007
   v'w'                   -377.623             0.032           354.031         0.001


   Friction Velocity (Ustar)  =      0.122 m/s
   Maximum Instantaneous TKE  =    828.897 (m/s)^2
   Maximum Instantaneous CTKE =    420.255 (m/s)^2


Grid Point Variance Summary:

   Y-coord  -82.50  -68.75  -55.00  -41.25  -27.50  -13.75    0.00   13.75   27.50   41.25   55.00   68.75   82.50

   Height   Standard deviation at grid points for the u component:
   172.50    9.974   9.974  10.065  10.199  10.293  10.209  10.206   9.975  10.078  10.157  10.241  10.393  10.234
   158.75    9.987   9.806   9.861  10.010  10.110  10.136  10.060   9.912   9.984  10.208  10.343  10.407  10.269
   145.00   10.003   9.884   9.884   9.911   9.914  10.107   9.960   9.887  10.049  10.175  10.335  10.415  10.361
   131.25    9.942   9.962   9.855   9.773   9.924  10.038  10.039  10.034  10.146  10.277  10.476  10.465  10.348
   117.50    9.923   9.850   9.862   9.789   9.952   9.945  10.111  10.099  10.375  10.505  10.461  10.495  10.408
   103.75    9.975   9.804   9.946   9.862   9.917   9.921  10.103  10.151  10.250  10.364  10.331  10.267  10.300
    90.00   10.067  10.019   9.956   9.844   9.831   9.957  10.061  10.064  10.161  10.302  10.446  10.339  10.275
    76.25   10.058  10.012  10.002  10.012  10.040  10.156  10.234  10.087  10.187  10.309  10.476  10.303  10.353
    62.50   10.237  10.204  10.034  10.241  10.327  10.289  10.333  10.229  10.315  10.304  10.257  10.462  10.478
    48.75   10.164  10.153  10.158  10.367  10.333  10.429  10.262  10.236  10.255  10.350  10.318  10.336  10.350
    35.00   10.214  10.206  10.289  10.429  10.455  10.348  10.307  10.358  10.445  10.426  10.319  10.398  10.246
    21.25   10.404  10.346  10.373  10.427  10.493  10.458  10.365  10.274  10.376  10.458  10.450  10.394  10.247
     7.50   10.293  10.342  10.350  10.489  10.512  10.469  10.512  10.528  10.424  10.356  10.452  10.311  10.350

   Height   Standard deviation at grid points for the v component:
   172.50    8.113   8.113   8.113   8.113   8.113   8.113   8.113   8.113   8.113   8.113   8.113   8.113   8.113
   158.75    8.113   8.113   8.113   8.113   8.113   8.113   8.113   8.113   8.113   8.113   8.113   8.113   8.113
   145.00    8.113   8.113   8.113   8.113   8.113   8.113   8.113   8.113   8.113   8.113   8.113   8.113   8.113
   131.25    8.113   8.113   8.113   8.113   8.113   8.113   8.113   8.113   8.113   8.113   8.113   8.113   8.113
   117.50    8.113   8.113   8.113   8.113   8.113   8.113   8.113   8.113   8.113   8.113   8.113   8.113   8.113
   103.75    8.113   8.113   8.113   8.113   8.113   8.113   8.113   8.113   8.113   8.113   8.113   8.113   8.113
    90.00    8.113   8.113   8.113   8.113   8.113   8.113   8.113   8.113   8.113   8.113   8.113   8.113   8.113
    76.25    8.113   8.113   8.113   8.113   8.113   8.113   8.113   8.113   8.113   8.113   8.113   8.113   8.113
    62.50    8.113   8.113   8.113   8.113   8.113   8.113   8.113   8.113   8.113   8.113   8.113   8.113   8.113
    48.75    8.113   8.113   8.113   8.113   8.113   8.113   8.113   8.113   8.113   8.113   8.113   8.113   8.113
    35.00    8.113   8.113   8.113   8.113   8.113   8.113   8.113   8.113   8.113   8.113   8.113   8.113   8.113
    21.25    8.113   8.113   8.113   8.113   8.113   8.113   8.113   8.113   8.113   8.113   8.113   8.113   8.113
     7.50    8.113   8.113   8.113   8.113   8.113   8.113   8.113   8.113   8.113   8.113   8.113   8.113   8.113

   Height   Standard deviation at grid points for the w component:
   172.50    4.837   4.837   4.837   4.837   4.837   4.837   4.837   4.837   4.837   4.837   4.837   4.837   4.837
   158.75    4.837   4.837   4.837   4.837   4.837   4.837   4.837   4.837   4.837   4.837   4.837   4.837   4.837
   145.00    4.837   4.837   4.837   4.837   4.837   4.837   4.837   4.837   4.837   4.837   4.837   4.837   4.837
   131.25    4.837   4.837   4.837   4.837   4.837   4.837   4.837   4.837   4.837   4.837   4.837   4.837   4.837
   117.50    4.837   4.837   4.837   4.837   4.837   4.837   4.837   4.837   4.837   4.837   4.837   4.837   4.837
   103.75    4.837   4.837   4.837   4.837   4.837   4.837   4.837   4.837   4.837   4.837   4.837   4.837   4.837
    90.00    4.837   4.837   4.837   4.837   4.837   4.837   4.837   4.837   4.837   4.837   4.837   4.837   4.837
    76.25    4.837   4.837   4.837   4.837   4.837   4.837   4.837   4.837   4.837   4.837   4.837   4.837   4.837
    62.50    4.837   4.837   4.837   4.837   4.837   4.837   4.837   4.837   4.837   4.837   4.837   4.837   4.837
    48.75    4.837   4.837   4.837   4.837   4.837   4.837   4.837   4.837   4.837   4.837   4.837   4.837   4.837
    35.00    4.837   4.837   4.837   4.837   4.837   4.837   4.837   4.837   4.837   4.837   4.837   4.837   4.837
    21.25    4.837   4.837   4.837   4.837   4.837   4.837   4.837   4.837   4.837   4.837   4.837   4.837   4.837
     7.50    4.837   4.837   4.837   4.837   4.837   4.837   4.837   4.837   4.837   4.837   4.837   4.837   4.837

   Mean standard deviation across all grid points:
      u component:   10.202 m/s
      v component:    8.113 m/s
      w component:    4.837 m/s


U-component (X) statistics from the interpolated hub point:

   Mean =  95.0000 m/s
   TI   =  10.5910 %


Processing complete.  16.031 CPU seconds used.
