
This summary file was generated by TurbSim (v2.00.07a-bjj, 14-Jun-2016) on 23-Mar-2020 at 10:42:26.


Runtime Options:

        61  Random seed #1
        62  Random seed #2
         F  Output binary HH turbulence parameters?
         F  Output formatted turbulence parameters?
         F  Output AeroDyn HH files?
         T  Output AeroDyn FF files?
         F  Output BLADED FF files?
         F  Output tower data?
         F  Output formatted FF files?
         F  Output coherent turbulence time step file?
         T  Clockwise rotation when looking downwind?
 0 -  NONE  IEC turbulence models scaled to exact specified standard deviation


Turbine/Model Specifications:

        13  Vertical grid-point matrix dimension
        13  Horizontal grid-point matrix dimension
     0.050  Time step [seconds]
  3630.000  Analysis time [seconds]
  3630.000  Usable output time [seconds]
    90.000  Hub height [m]
   165.000  Grid height [m]
   165.000  Grid width [m]
     0.000  Vertical flow angle [degrees]
     0.000  Horizontal flow angle [degrees]


Meteorological Boundary Conditions:

    IECKAI  IEC Kaimal spectral model
         3  IEC standard: IEC 61400-3 Ed. 1: 2006
    11.000  Percent turbulence intensity, IEC 61400-3 Ed. 1: 2006
       NTM  IEC Normal Turbulence Model
       N/A  IEC Extreme Turbulence Model (ETM) "c" parameter [m/s]
       IEC  Wind profile type
    90.000  Reference height [m]
    35.000  Reference wind speed [m/s]
       N/A  Jet height [m]
     0.140  Power law exponent
     0.030  Surface roughness length [m]


Non-IEC Meteorological Boundary Conditions:

       N/A  Site latitude [degrees]
       N/A  Gradient Richardson number
       N/A  Friction or shear velocity [m/s]
       N/A  Mixing layer depth [m]
       N/A  Mean hub u'w' Reynolds stress
       N/A  Mean hub u'v' Reynolds stress
       N/A  Mean hub v'w' Reynolds stress


Spatial Coherence Models:

       IEC  u-component coherence model
      NONE  v-component coherence model
      NONE  w-component coherence model
(   12.000, 0.353E-03)  u-component coherence parameters
                   N/A  v-component coherence parameters
                   N/A  w-component coherence parameters
       N/A  Coherence exponent


You have requested that the following file(s) be generated:

   6_35.bts (AeroDyn/TurbSim full-field wind file)


Turbulence Simulation Scaling Parameter Summary:

   Turbulence model used                            =  IEC Kaimal
   Turbulence characteristic                        =  User-specified
   IEC standard                                     =  IEC 61400-3 Ed. 1: 2006
   Mean wind speed at hub height                    =   35.000 m/s
   Characteristic value of standard deviation       =    3.850 m/s
   Turbulence scale                                 =   42.000 m
   u-component integral scale                       =  340.200 m
   Coherency scale                                  =  340.200 m
   Characteristic value of hub turbulence intensity =   11.000%
   Gradient Richardson number                       =    0.000

   Wind profile type                                =  Power law on rotor disk, logarithmic elsewhere
   Power law exponent                               =    0.140
   Mean shear across rotor disk                     =    0.083 (m/s)/m
   Assumed rotor diameter                           =  165.000 m
   Surface roughness length                         =    0.030 m

   Nyquist frequency of turbulent wind field        =   10.000 Hz

   Number of time steps in the FFT                  =    72600
   Number of time steps output                      =    72600
   Number of points simulated                       =      169


Mean Flow Angles:

   Vertical   =   0.0 degrees
   Horizontal =   0.0 degrees

Mean Wind Speed Profile:

   Height    Wind Speed   Horizontal Angle  Vertical Angle  U-comp (X)   V-comp (Y)   W-comp (Z)
     (m)        (m/s)         (degrees)       (degrees)       (m/s)        (m/s)        (m/s)   
   ------    ----------   ----------------  --------------  ----------   ----------   ----------
    172.5       38.34            0.00            0.00         38.34         0.00         0.00
    158.8       37.89            0.00            0.00         37.89         0.00         0.00
    145.0       37.42            0.00            0.00         37.42         0.00         0.00
    131.2       36.90            0.00            0.00         36.90         0.00         0.00
    117.5       36.33            0.00            0.00         36.33         0.00         0.00
    103.8       35.70            0.00            0.00         35.70         0.00         0.00
     90.0       35.00            0.00            0.00         35.00         0.00         0.00
     76.2       34.20            0.00            0.00         34.20         0.00         0.00
     62.5       33.26            0.00            0.00         33.26         0.00         0.00
     48.8       32.12            0.00            0.00         32.12         0.00         0.00
     35.0       30.67            0.00            0.00         30.67         0.00         0.00
     21.2       28.60            0.00            0.00         28.60         0.00         0.00
      7.5       24.72            0.00            0.00         24.72         0.00         0.00


Harvested Random Seeds after Generation of the Random Numbers:

    625370864 Harvested seed # 1
   1223978853 Harvested seed # 2


Hub-Height Simulated Turbulence Statistical Summary:

   Type of Wind        Min (m/s)   Mean (m/s)    Max (m/s)  Sigma (m/s)       TI (%)
   ----------------    ---------   ----------    ---------  -----------       ------
   Longitudinal (u)        21.10        35.00        50.42        3.868       11.051
   Lateral (v)            -12.19         0.00        14.93        3.031        8.660
   Vertical (w)            -7.21        -0.00         7.71        1.851        5.288
   U component             21.10        35.00        50.42        3.868       11.051
   V component            -12.19         0.00        14.93        3.031        8.660
   W component             -7.21        -0.00         7.71        1.851        5.288
   Horizontal (U&V)        21.10        35.13        50.45        3.856       10.975
   Total                   21.18        35.18        50.48        3.851       10.947

                       Min Reynolds     Mean Reynolds    Max Reynolds    Correlation
   Product             Stress (m/s)^2   Stress (m/s)^2   Stress (m/s)^2  Coefficient
   ----------------    --------------   --------------   --------------  -----------
   u'w'                    -86.264            -0.065            49.441        -0.009
   u'v'                    -82.123             0.657            95.884         0.056
   v'w'                    -74.855            -0.110            41.828        -0.020


   Friction Velocity (Ustar)  =      0.255 m/s
   Maximum Instantaneous TKE  =    125.087 (m/s)^2
   Maximum Instantaneous CTKE =     48.825 (m/s)^2


Grid Point Variance Summary:

   Y-coord  -82.50  -68.75  -55.00  -41.25  -27.50  -13.75    0.00   13.75   27.50   41.25   55.00   68.75   82.50

   Height   Standard deviation at grid points for the u component:
   172.50    3.877   3.901   3.956   4.026   4.011   3.980   4.019   4.026   4.018   4.123   4.185   4.060   3.930
   158.75    3.876   3.894   4.010   4.044   3.945   3.967   3.961   3.939   3.961   4.069   4.124   4.044   4.037
   145.00    3.901   3.943   4.005   3.989   4.047   3.968   3.952   3.955   3.927   4.064   4.049   3.963   3.946
   131.25    4.009   4.039   3.982   3.900   3.965   3.966   3.975   3.893   3.875   3.860   3.912   3.899   3.948
   117.50    3.948   3.989   3.894   3.937   3.892   3.949   3.878   3.840   3.927   3.918   3.945   3.942   4.027
   103.75    3.921   3.936   3.880   3.799   3.877   3.865   3.835   3.871   3.923   3.989   3.910   3.913   3.943
    90.00    3.829   3.857   3.804   3.735   3.814   3.804   3.868   3.895   3.930   3.931   3.944   3.870   3.909
    76.25    3.833   3.796   3.717   3.726   3.635   3.753   3.853   3.857   3.860   3.823   3.892   3.820   3.836
    62.50    3.848   3.719   3.640   3.588   3.634   3.687   3.842   3.876   3.894   3.804   3.790   3.776   3.822
    48.75    3.806   3.646   3.619   3.627   3.651   3.735   3.821   3.846   3.838   3.790   3.831   3.729   3.753
    35.00    3.766   3.740   3.633   3.614   3.636   3.712   3.728   3.682   3.774   3.836   3.846   3.792   3.775
    21.25    3.780   3.745   3.668   3.620   3.609   3.671   3.693   3.730   3.759   3.779   3.901   3.819   3.807
     7.50    3.812   3.796   3.648   3.672   3.708   3.652   3.680   3.731   3.775   3.833   3.858   3.866   3.808

   Height   Standard deviation at grid points for the v component:
   172.50    3.031   3.031   3.031   3.031   3.031   3.031   3.031   3.031   3.031   3.031   3.031   3.031   3.031
   158.75    3.031   3.031   3.031   3.031   3.031   3.031   3.031   3.031   3.031   3.031   3.031   3.031   3.031
   145.00    3.031   3.031   3.031   3.031   3.031   3.031   3.031   3.031   3.031   3.031   3.031   3.031   3.031
   131.25    3.031   3.031   3.031   3.031   3.031   3.031   3.031   3.031   3.031   3.031   3.031   3.031   3.031
   117.50    3.031   3.031   3.031   3.031   3.031   3.031   3.031   3.031   3.031   3.031   3.031   3.031   3.031
   103.75    3.031   3.031   3.031   3.031   3.031   3.031   3.031   3.031   3.031   3.031   3.031   3.031   3.031
    90.00    3.031   3.031   3.031   3.031   3.031   3.031   3.031   3.031   3.031   3.031   3.031   3.031   3.031
    76.25    3.031   3.031   3.031   3.031   3.031   3.031   3.031   3.031   3.031   3.031   3.031   3.031   3.031
    62.50    3.031   3.031   3.031   3.031   3.031   3.031   3.031   3.031   3.031   3.031   3.031   3.031   3.031
    48.75    3.031   3.031   3.031   3.031   3.031   3.031   3.031   3.031   3.031   3.031   3.031   3.031   3.031
    35.00    3.031   3.031   3.031   3.031   3.031   3.031   3.031   3.031   3.031   3.031   3.031   3.031   3.031
    21.25    3.031   3.031   3.031   3.031   3.031   3.031   3.031   3.031   3.031   3.031   3.031   3.031   3.031
     7.50    3.031   3.031   3.031   3.031   3.031   3.031   3.031   3.031   3.031   3.031   3.031   3.031   3.031

   Height   Standard deviation at grid points for the w component:
   172.50    1.851   1.851   1.851   1.851   1.851   1.851   1.851   1.851   1.851   1.851   1.851   1.851   1.851
   158.75    1.851   1.851   1.851   1.851   1.851   1.851   1.851   1.851   1.851   1.851   1.851   1.851   1.851
   145.00    1.851   1.851   1.851   1.851   1.851   1.851   1.851   1.851   1.851   1.851   1.851   1.851   1.851
   131.25    1.851   1.851   1.851   1.851   1.851   1.851   1.851   1.851   1.851   1.851   1.851   1.851   1.851
   117.50    1.851   1.851   1.851   1.851   1.851   1.851   1.851   1.851   1.851   1.851   1.851   1.851   1.851
   103.75    1.851   1.851   1.851   1.851   1.851   1.851   1.851   1.851   1.851   1.851   1.851   1.851   1.851
    90.00    1.851   1.851   1.851   1.851   1.851   1.851   1.851   1.851   1.851   1.851   1.851   1.851   1.851
    76.25    1.851   1.851   1.851   1.851   1.851   1.851   1.851   1.851   1.851   1.851   1.851   1.851   1.851
    62.50    1.851   1.851   1.851   1.851   1.851   1.851   1.851   1.851   1.851   1.851   1.851   1.851   1.851
    48.75    1.851   1.851   1.851   1.851   1.851   1.851   1.851   1.851   1.851   1.851   1.851   1.851   1.851
    35.00    1.851   1.851   1.851   1.851   1.851   1.851   1.851   1.851   1.851   1.851   1.851   1.851   1.851
    21.25    1.851   1.851   1.851   1.851   1.851   1.851   1.851   1.851   1.851   1.851   1.851   1.851   1.851
     7.50    1.851   1.851   1.851   1.851   1.851   1.851   1.851   1.851   1.851   1.851   1.851   1.851   1.851

   Mean standard deviation across all grid points:
      u component:    3.857 m/s
      v component:    3.031 m/s
      w component:    1.851 m/s


U-component (X) statistics from the interpolated hub point:

   Mean =  35.0000 m/s
   TI   =  11.0513 %


Processing complete.  16.375 CPU seconds used.
