
This summary file was generated by TurbSim (v2.00.07a-bjj, 14-Jun-2016) on 23-Mar-2020 at 10:48:21.


Runtime Options:

        61  Random seed #1
        62  Random seed #2
         F  Output binary HH turbulence parameters?
         F  Output formatted turbulence parameters?
         F  Output AeroDyn HH files?
         T  Output AeroDyn FF files?
         F  Output BLADED FF files?
         F  Output tower data?
         F  Output formatted FF files?
         F  Output coherent turbulence time step file?
         T  Clockwise rotation when looking downwind?
 0 -  NONE  IEC turbulence models scaled to exact specified standard deviation


Turbine/Model Specifications:

        13  Vertical grid-point matrix dimension
        13  Horizontal grid-point matrix dimension
     0.050  Time step [seconds]
  3630.000  Analysis time [seconds]
  3630.000  Usable output time [seconds]
    90.000  Hub height [m]
   165.000  Grid height [m]
   165.000  Grid width [m]
     0.000  Vertical flow angle [degrees]
     0.000  Horizontal flow angle [degrees]


Meteorological Boundary Conditions:

    IECKAI  IEC Kaimal spectral model
         3  IEC standard: IEC 61400-3 Ed. 1: 2006
    11.000  Percent turbulence intensity, IEC 61400-3 Ed. 1: 2006
       NTM  IEC Normal Turbulence Model
       N/A  IEC Extreme Turbulence Model (ETM) "c" parameter [m/s]
       IEC  Wind profile type
    90.000  Reference height [m]
   100.000  Reference wind speed [m/s]
       N/A  Jet height [m]
     0.140  Power law exponent
     0.030  Surface roughness length [m]


Non-IEC Meteorological Boundary Conditions:

       N/A  Site latitude [degrees]
       N/A  Gradient Richardson number
       N/A  Friction or shear velocity [m/s]
       N/A  Mixing layer depth [m]
       N/A  Mean hub u'w' Reynolds stress
       N/A  Mean hub u'v' Reynolds stress
       N/A  Mean hub v'w' Reynolds stress


Spatial Coherence Models:

       IEC  u-component coherence model
      NONE  v-component coherence model
      NONE  w-component coherence model
(   12.000, 0.353E-03)  u-component coherence parameters
                   N/A  v-component coherence parameters
                   N/A  w-component coherence parameters
       N/A  Coherence exponent


You have requested that the following file(s) be generated:

   6_100.bts (AeroDyn/TurbSim full-field wind file)


Turbulence Simulation Scaling Parameter Summary:

   Turbulence model used                            =  IEC Kaimal
   Turbulence characteristic                        =  User-specified
   IEC standard                                     =  IEC 61400-3 Ed. 1: 2006
   Mean wind speed at hub height                    =  100.000 m/s
   Characteristic value of standard deviation       =   11.000 m/s
   Turbulence scale                                 =   42.000 m
   u-component integral scale                       =  340.200 m
   Coherency scale                                  =  340.200 m
   Characteristic value of hub turbulence intensity =   11.000%
   Gradient Richardson number                       =    0.000

   Wind profile type                                =  Power law on rotor disk, logarithmic elsewhere
   Power law exponent                               =    0.140
   Mean shear across rotor disk                     =    0.236 (m/s)/m
   Assumed rotor diameter                           =  165.000 m
   Surface roughness length                         =    0.030 m

   Nyquist frequency of turbulent wind field        =   10.000 Hz

   Number of time steps in the FFT                  =    72600
   Number of time steps output                      =    72600
   Number of points simulated                       =      169


Mean Flow Angles:

   Vertical   =   0.0 degrees
   Horizontal =   0.0 degrees

Mean Wind Speed Profile:

   Height    Wind Speed   Horizontal Angle  Vertical Angle  U-comp (X)   V-comp (Y)   W-comp (Z)
     (m)        (m/s)         (degrees)       (degrees)       (m/s)        (m/s)        (m/s)   
   ------    ----------   ----------------  --------------  ----------   ----------   ----------
    172.5      109.54            0.00            0.00        109.54         0.00         0.00
    158.8      108.27            0.00            0.00        108.27         0.00         0.00
    145.0      106.90            0.00            0.00        106.90         0.00         0.00
    131.2      105.42            0.00            0.00        105.42         0.00         0.00
    117.5      103.80            0.00            0.00        103.80         0.00         0.00
    103.8      102.01            0.00            0.00        102.01         0.00         0.00
     90.0      100.00            0.00            0.00        100.00         0.00         0.00
     76.2       97.71            0.00            0.00         97.71         0.00         0.00
     62.5       95.02            0.00            0.00         95.02         0.00         0.00
     48.8       91.77            0.00            0.00         91.77         0.00         0.00
     35.0       87.61            0.00            0.00         87.61         0.00         0.00
     21.2       81.70            0.00            0.00         81.70         0.00         0.00
      7.5       70.62            0.00            0.00         70.62         0.00         0.00


Harvested Random Seeds after Generation of the Random Numbers:

    625370864 Harvested seed # 1
   1223978853 Harvested seed # 2


Hub-Height Simulated Turbulence Statistical Summary:

   Type of Wind        Min (m/s)   Mean (m/s)    Max (m/s)  Sigma (m/s)       TI (%)
   ----------------    ---------   ----------    ---------  -----------       ------
   Longitudinal (u)        56.59       100.00       144.49       10.977       10.977
   Lateral (v)            -34.03         0.00        39.90        8.532        8.532
   Vertical (w)           -20.54        -0.00        21.44        5.077        5.077
   U component             56.59       100.00       144.49       10.977       10.977
   V component            -34.03         0.00        39.90        8.532        8.532
   W component            -20.54        -0.00        21.44        5.077        5.077
   Horizontal (U&V)        56.63       100.37       144.66       10.945       10.905
   Total                   56.69       100.50       144.66       10.933       10.879

                       Min Reynolds     Mean Reynolds    Max Reynolds    Correlation
   Product             Stress (m/s)^2   Stress (m/s)^2   Stress (m/s)^2  Coefficient
   ----------------    --------------   --------------   --------------  -----------
   u'w'                   -683.879            -0.385           510.391        -0.007
   u'v'                   -690.821             3.406           909.700         0.036
   v'w'                   -520.448            -0.577           370.556        -0.013


   Friction Velocity (Ustar)  =      0.621 m/s
   Maximum Instantaneous TKE  =   1038.505 (m/s)^2
   Maximum Instantaneous CTKE =    461.408 (m/s)^2


Grid Point Variance Summary:

   Y-coord  -82.50  -68.75  -55.00  -41.25  -27.50  -13.75    0.00   13.75   27.50   41.25   55.00   68.75   82.50

   Height   Standard deviation at grid points for the u component:
   172.50   10.957  11.007  11.029  11.093  11.079  11.006  11.079  11.053  11.060  11.255  11.273  11.132  10.896
   158.75   10.916  10.952  11.121  11.111  11.041  11.051  11.074  11.026  11.009  11.147  11.238  11.102  11.074
   145.00   10.982  11.028  11.119  11.076  11.160  11.092  11.075  11.070  10.950  11.170  11.148  11.044  10.988
   131.25   11.097  11.172  11.053  10.979  11.140  11.018  11.094  11.022  10.953  10.864  11.032  11.027  11.058
   117.50   10.996  11.057  10.901  10.990  10.970  11.062  10.932  10.912  11.004  10.959  11.037  11.077  11.197
   103.75   11.052  11.035  10.914  10.800  10.930  10.941  10.892  10.907  11.055  11.118  10.984  11.020  11.027
    90.00   10.893  10.949  10.871  10.734  10.823  10.839  10.977  10.968  11.007  10.996  11.014  10.946  11.052
    76.25   10.921  10.882  10.690  10.713  10.512  10.737  10.949  10.953  10.875  10.814  10.910  10.862  10.856
    62.50   10.968  10.708  10.583  10.487  10.533  10.613  10.874  10.890  10.841  10.699  10.736  10.756  10.837
    48.75   10.884  10.618  10.550  10.531  10.571  10.700  10.830  10.857  10.835  10.709  10.819  10.688  10.693
    35.00   10.819  10.722  10.585  10.457  10.471  10.615  10.711  10.617  10.717  10.872  10.881  10.807  10.695
    21.25   10.774  10.754  10.617  10.499  10.485  10.606  10.639  10.667  10.771  10.777  10.924  10.811  10.711
     7.50   10.830  10.822  10.635  10.696  10.715  10.576  10.646  10.678  10.794  10.847  10.859  10.860  10.767

   Height   Standard deviation at grid points for the v component:
   172.50    8.532   8.532   8.532   8.532   8.532   8.532   8.532   8.532   8.532   8.532   8.532   8.532   8.532
   158.75    8.532   8.532   8.532   8.532   8.532   8.532   8.532   8.532   8.532   8.532   8.532   8.532   8.532
   145.00    8.532   8.532   8.532   8.532   8.532   8.532   8.532   8.532   8.532   8.532   8.532   8.532   8.532
   131.25    8.532   8.532   8.532   8.532   8.532   8.532   8.532   8.532   8.532   8.532   8.532   8.532   8.532
   117.50    8.532   8.532   8.532   8.532   8.532   8.532   8.532   8.532   8.532   8.532   8.532   8.532   8.532
   103.75    8.532   8.532   8.532   8.532   8.532   8.532   8.532   8.532   8.532   8.532   8.532   8.532   8.532
    90.00    8.532   8.532   8.532   8.532   8.532   8.532   8.532   8.532   8.532   8.532   8.532   8.532   8.532
    76.25    8.532   8.532   8.532   8.532   8.532   8.532   8.532   8.532   8.532   8.532   8.532   8.532   8.532
    62.50    8.532   8.532   8.532   8.532   8.532   8.532   8.532   8.532   8.532   8.532   8.532   8.532   8.532
    48.75    8.532   8.532   8.532   8.532   8.532   8.532   8.532   8.532   8.532   8.532   8.532   8.532   8.532
    35.00    8.532   8.532   8.532   8.532   8.532   8.532   8.532   8.532   8.532   8.532   8.532   8.532   8.532
    21.25    8.532   8.532   8.532   8.532   8.532   8.532   8.532   8.532   8.532   8.532   8.532   8.532   8.532
     7.50    8.532   8.532   8.532   8.532   8.532   8.532   8.532   8.532   8.532   8.532   8.532   8.532   8.532

   Height   Standard deviation at grid points for the w component:
   172.50    5.077   5.077   5.077   5.077   5.077   5.077   5.077   5.077   5.077   5.077   5.077   5.077   5.077
   158.75    5.077   5.077   5.077   5.077   5.077   5.077   5.077   5.077   5.077   5.077   5.077   5.077   5.077
   145.00    5.077   5.077   5.077   5.077   5.077   5.077   5.077   5.077   5.077   5.077   5.077   5.077   5.077
   131.25    5.077   5.077   5.077   5.077   5.077   5.077   5.077   5.077   5.077   5.077   5.077   5.077   5.077
   117.50    5.077   5.077   5.077   5.077   5.077   5.077   5.077   5.077   5.077   5.077   5.077   5.077   5.077
   103.75    5.077   5.077   5.077   5.077   5.077   5.077   5.077   5.077   5.077   5.077   5.077   5.077   5.077
    90.00    5.077   5.077   5.077   5.077   5.077   5.077   5.077   5.077   5.077   5.077   5.077   5.077   5.077
    76.25    5.077   5.077   5.077   5.077   5.077   5.077   5.077   5.077   5.077   5.077   5.077   5.077   5.077
    62.50    5.077   5.077   5.077   5.077   5.077   5.077   5.077   5.077   5.077   5.077   5.077   5.077   5.077
    48.75    5.077   5.077   5.077   5.077   5.077   5.077   5.077   5.077   5.077   5.077   5.077   5.077   5.077
    35.00    5.077   5.077   5.077   5.077   5.077   5.077   5.077   5.077   5.077   5.077   5.077   5.077   5.077
    21.25    5.077   5.077   5.077   5.077   5.077   5.077   5.077   5.077   5.077   5.077   5.077   5.077   5.077
     7.50    5.077   5.077   5.077   5.077   5.077   5.077   5.077   5.077   5.077   5.077   5.077   5.077   5.077

   Mean standard deviation across all grid points:
      u component:   10.889 m/s
      v component:    8.532 m/s
      w component:    5.077 m/s


U-component (X) statistics from the interpolated hub point:

   Mean = 100.0000 m/s
   TI   =  10.9773 %


Processing complete.  16.422 CPU seconds used.
