
This summary file was generated by TurbSim (v2.00.07a-bjj, 14-Jun-2016) on 23-Mar-2020 at 10:42:54.


Runtime Options:

        61  Random seed #1
        62  Random seed #2
         F  Output binary HH turbulence parameters?
         F  Output formatted turbulence parameters?
         F  Output AeroDyn HH files?
         T  Output AeroDyn FF files?
         F  Output BLADED FF files?
         F  Output tower data?
         F  Output formatted FF files?
         F  Output coherent turbulence time step file?
         T  Clockwise rotation when looking downwind?
 0 -  NONE  IEC turbulence models scaled to exact specified standard deviation


Turbine/Model Specifications:

        13  Vertical grid-point matrix dimension
        13  Horizontal grid-point matrix dimension
     0.050  Time step [seconds]
  3630.000  Analysis time [seconds]
  3630.000  Usable output time [seconds]
    90.000  Hub height [m]
   165.000  Grid height [m]
   165.000  Grid width [m]
     0.000  Vertical flow angle [degrees]
     0.000  Horizontal flow angle [degrees]


Meteorological Boundary Conditions:

    IECKAI  IEC Kaimal spectral model
         3  IEC standard: IEC 61400-3 Ed. 1: 2006
    11.000  Percent turbulence intensity, IEC 61400-3 Ed. 1: 2006
       NTM  IEC Normal Turbulence Model
       N/A  IEC Extreme Turbulence Model (ETM) "c" parameter [m/s]
       IEC  Wind profile type
    90.000  Reference height [m]
    40.000  Reference wind speed [m/s]
       N/A  Jet height [m]
     0.140  Power law exponent
     0.030  Surface roughness length [m]


Non-IEC Meteorological Boundary Conditions:

       N/A  Site latitude [degrees]
       N/A  Gradient Richardson number
       N/A  Friction or shear velocity [m/s]
       N/A  Mixing layer depth [m]
       N/A  Mean hub u'w' Reynolds stress
       N/A  Mean hub u'v' Reynolds stress
       N/A  Mean hub v'w' Reynolds stress


Spatial Coherence Models:

       IEC  u-component coherence model
      NONE  v-component coherence model
      NONE  w-component coherence model
(   12.000, 0.353E-03)  u-component coherence parameters
                   N/A  v-component coherence parameters
                   N/A  w-component coherence parameters
       N/A  Coherence exponent


You have requested that the following file(s) be generated:

   6_40.bts (AeroDyn/TurbSim full-field wind file)


Turbulence Simulation Scaling Parameter Summary:

   Turbulence model used                            =  IEC Kaimal
   Turbulence characteristic                        =  User-specified
   IEC standard                                     =  IEC 61400-3 Ed. 1: 2006
   Mean wind speed at hub height                    =   40.000 m/s
   Characteristic value of standard deviation       =    4.400 m/s
   Turbulence scale                                 =   42.000 m
   u-component integral scale                       =  340.200 m
   Coherency scale                                  =  340.200 m
   Characteristic value of hub turbulence intensity =   11.000%
   Gradient Richardson number                       =    0.000

   Wind profile type                                =  Power law on rotor disk, logarithmic elsewhere
   Power law exponent                               =    0.140
   Mean shear across rotor disk                     =    0.094 (m/s)/m
   Assumed rotor diameter                           =  165.000 m
   Surface roughness length                         =    0.030 m

   Nyquist frequency of turbulent wind field        =   10.000 Hz

   Number of time steps in the FFT                  =    72600
   Number of time steps output                      =    72600
   Number of points simulated                       =      169


Mean Flow Angles:

   Vertical   =   0.0 degrees
   Horizontal =   0.0 degrees

Mean Wind Speed Profile:

   Height    Wind Speed   Horizontal Angle  Vertical Angle  U-comp (X)   V-comp (Y)   W-comp (Z)
     (m)        (m/s)         (degrees)       (degrees)       (m/s)        (m/s)        (m/s)   
   ------    ----------   ----------------  --------------  ----------   ----------   ----------
    172.5       43.81            0.00            0.00         43.81         0.00         0.00
    158.8       43.31            0.00            0.00         43.31         0.00         0.00
    145.0       42.76            0.00            0.00         42.76         0.00         0.00
    131.2       42.17            0.00            0.00         42.17         0.00         0.00
    117.5       41.52            0.00            0.00         41.52         0.00         0.00
    103.8       40.80            0.00            0.00         40.80         0.00         0.00
     90.0       40.00            0.00            0.00         40.00         0.00         0.00
     76.2       39.08            0.00            0.00         39.08         0.00         0.00
     62.5       38.01            0.00            0.00         38.01         0.00         0.00
     48.8       36.71            0.00            0.00         36.71         0.00         0.00
     35.0       35.05            0.00            0.00         35.05         0.00         0.00
     21.2       32.68            0.00            0.00         32.68         0.00         0.00
      7.5       28.25            0.00            0.00         28.25         0.00         0.00


Harvested Random Seeds after Generation of the Random Numbers:

    625370864 Harvested seed # 1
   1223978853 Harvested seed # 2


Hub-Height Simulated Turbulence Statistical Summary:

   Type of Wind        Min (m/s)   Mean (m/s)    Max (m/s)  Sigma (m/s)       TI (%)
   ----------------    ---------   ----------    ---------  -----------       ------
   Longitudinal (u)        23.99        40.00        57.66        4.425       11.061
   Lateral (v)            -13.95         0.00        16.99        3.460        8.649
   Vertical (w)            -8.27        -0.00         8.72        2.107        5.269
   U component             23.99        40.00        57.66        4.425       11.061
   V component            -13.95         0.00        16.99        3.460        8.649
   W component             -8.27        -0.00         8.72        2.107        5.269
   Horizontal (U&V)        24.01        40.15        57.70        4.410       10.985
   Total                   24.05        40.21        57.73        4.405       10.957

                       Min Reynolds     Mean Reynolds    Max Reynolds    Correlation
   Product             Stress (m/s)^2   Stress (m/s)^2   Stress (m/s)^2  Coefficient
   ----------------    --------------   --------------   --------------  -----------
   u'w'                   -113.528            -0.079            65.157        -0.008
   u'v'                   -107.300             0.815           130.791         0.053
   v'w'                    -96.518            -0.134            54.090        -0.018


   Friction Velocity (Ustar)  =      0.281 m/s
   Maximum Instantaneous TKE  =    164.555 (m/s)^2
   Maximum Instantaneous CTKE =     66.520 (m/s)^2


Grid Point Variance Summary:

   Y-coord  -82.50  -68.75  -55.00  -41.25  -27.50  -13.75    0.00   13.75   27.50   41.25   55.00   68.75   82.50

   Height   Standard deviation at grid points for the u component:
   172.50    4.430   4.456   4.513   4.583   4.568   4.533   4.574   4.580   4.571   4.686   4.746   4.613   4.473
   158.75    4.425   4.444   4.569   4.600   4.502   4.523   4.518   4.494   4.514   4.624   4.682   4.594   4.588
   145.00    4.453   4.498   4.561   4.546   4.607   4.527   4.509   4.511   4.477   4.621   4.602   4.511   4.491
   131.25    4.565   4.598   4.533   4.452   4.525   4.518   4.533   4.449   4.425   4.404   4.465   4.449   4.499
   117.50    4.495   4.541   4.437   4.484   4.440   4.504   4.427   4.388   4.477   4.465   4.496   4.495   4.587
   103.75    4.474   4.486   4.424   4.336   4.420   4.413   4.385   4.418   4.478   4.544   4.461   4.465   4.494
    90.00    4.374   4.405   4.346   4.270   4.354   4.349   4.425   4.447   4.482   4.483   4.495   4.419   4.463
    76.25    4.381   4.343   4.251   4.264   4.165   4.297   4.412   4.413   4.406   4.364   4.435   4.362   4.379
    62.50    4.400   4.256   4.173   4.116   4.164   4.224   4.391   4.426   4.434   4.335   4.325   4.314   4.365
    48.75    4.356   4.183   4.151   4.156   4.182   4.272   4.364   4.389   4.379   4.323   4.370   4.262   4.288
    35.00    4.313   4.281   4.168   4.140   4.160   4.244   4.265   4.213   4.308   4.379   4.387   4.332   4.308
    21.25    4.320   4.286   4.203   4.148   4.134   4.203   4.226   4.265   4.297   4.316   4.443   4.358   4.340
     7.50    4.355   4.340   4.184   4.212   4.246   4.183   4.213   4.263   4.313   4.371   4.398   4.406   4.345

   Height   Standard deviation at grid points for the v component:
   172.50    3.460   3.460   3.460   3.460   3.460   3.460   3.460   3.460   3.460   3.460   3.460   3.460   3.460
   158.75    3.460   3.460   3.460   3.460   3.460   3.460   3.460   3.460   3.460   3.460   3.460   3.460   3.460
   145.00    3.460   3.460   3.460   3.460   3.460   3.460   3.460   3.460   3.460   3.460   3.460   3.460   3.460
   131.25    3.460   3.460   3.460   3.460   3.460   3.460   3.460   3.460   3.460   3.460   3.460   3.460   3.460
   117.50    3.460   3.460   3.460   3.460   3.460   3.460   3.460   3.460   3.460   3.460   3.460   3.460   3.460
   103.75    3.460   3.460   3.460   3.460   3.460   3.460   3.460   3.460   3.460   3.460   3.460   3.460   3.460
    90.00    3.460   3.460   3.460   3.460   3.460   3.460   3.460   3.460   3.460   3.460   3.460   3.460   3.460
    76.25    3.460   3.460   3.460   3.460   3.460   3.460   3.460   3.460   3.460   3.460   3.460   3.460   3.460
    62.50    3.460   3.460   3.460   3.460   3.460   3.460   3.460   3.460   3.460   3.460   3.460   3.460   3.460
    48.75    3.460   3.460   3.460   3.460   3.460   3.460   3.460   3.460   3.460   3.460   3.460   3.460   3.460
    35.00    3.460   3.460   3.460   3.460   3.460   3.460   3.460   3.460   3.460   3.460   3.460   3.460   3.460
    21.25    3.460   3.460   3.460   3.460   3.460   3.460   3.460   3.460   3.460   3.460   3.460   3.460   3.460
     7.50    3.460   3.460   3.460   3.460   3.460   3.460   3.460   3.460   3.460   3.460   3.460   3.460   3.460

   Height   Standard deviation at grid points for the w component:
   172.50    2.107   2.107   2.107   2.107   2.107   2.107   2.107   2.107   2.107   2.107   2.107   2.107   2.107
   158.75    2.107   2.107   2.107   2.107   2.107   2.107   2.107   2.107   2.107   2.107   2.107   2.107   2.107
   145.00    2.107   2.107   2.107   2.107   2.107   2.107   2.107   2.107   2.107   2.107   2.107   2.107   2.107
   131.25    2.107   2.107   2.107   2.107   2.107   2.107   2.107   2.107   2.107   2.107   2.107   2.107   2.107
   117.50    2.107   2.107   2.107   2.107   2.107   2.107   2.107   2.107   2.107   2.107   2.107   2.107   2.107
   103.75    2.107   2.107   2.107   2.107   2.107   2.107   2.107   2.107   2.107   2.107   2.107   2.107   2.107
    90.00    2.107   2.107   2.107   2.107   2.107   2.107   2.107   2.107   2.107   2.107   2.107   2.107   2.107
    76.25    2.107   2.107   2.107   2.107   2.107   2.107   2.107   2.107   2.107   2.107   2.107   2.107   2.107
    62.50    2.107   2.107   2.107   2.107   2.107   2.107   2.107   2.107   2.107   2.107   2.107   2.107   2.107
    48.75    2.107   2.107   2.107   2.107   2.107   2.107   2.107   2.107   2.107   2.107   2.107   2.107   2.107
    35.00    2.107   2.107   2.107   2.107   2.107   2.107   2.107   2.107   2.107   2.107   2.107   2.107   2.107
    21.25    2.107   2.107   2.107   2.107   2.107   2.107   2.107   2.107   2.107   2.107   2.107   2.107   2.107
     7.50    2.107   2.107   2.107   2.107   2.107   2.107   2.107   2.107   2.107   2.107   2.107   2.107   2.107

   Mean standard deviation across all grid points:
      u component:    4.402 m/s
      v component:    3.460 m/s
      w component:    2.107 m/s


U-component (X) statistics from the interpolated hub point:

   Mean =  40.0000 m/s
   TI   =  11.0614 %


Processing complete.  16.328 CPU seconds used.
