
This summary file was generated by TurbSim (v2.00.07a-bjj, 14-Jun-2016) on 23-Mar-2020 at 10:45:13.


Runtime Options:

        61  Random seed #1
        62  Random seed #2
         F  Output binary HH turbulence parameters?
         F  Output formatted turbulence parameters?
         F  Output AeroDyn HH files?
         T  Output AeroDyn FF files?
         F  Output BLADED FF files?
         F  Output tower data?
         F  Output formatted FF files?
         F  Output coherent turbulence time step file?
         T  Clockwise rotation when looking downwind?
 0 -  NONE  IEC turbulence models scaled to exact specified standard deviation


Turbine/Model Specifications:

        13  Vertical grid-point matrix dimension
        13  Horizontal grid-point matrix dimension
     0.050  Time step [seconds]
  3630.000  Analysis time [seconds]
  3630.000  Usable output time [seconds]
    90.000  Hub height [m]
   165.000  Grid height [m]
   165.000  Grid width [m]
     0.000  Vertical flow angle [degrees]
     0.000  Horizontal flow angle [degrees]


Meteorological Boundary Conditions:

    IECKAI  IEC Kaimal spectral model
         3  IEC standard: IEC 61400-3 Ed. 1: 2006
    11.000  Percent turbulence intensity, IEC 61400-3 Ed. 1: 2006
       NTM  IEC Normal Turbulence Model
       N/A  IEC Extreme Turbulence Model (ETM) "c" parameter [m/s]
       IEC  Wind profile type
    90.000  Reference height [m]
    70.000  Reference wind speed [m/s]
       N/A  Jet height [m]
     0.140  Power law exponent
     0.030  Surface roughness length [m]


Non-IEC Meteorological Boundary Conditions:

       N/A  Site latitude [degrees]
       N/A  Gradient Richardson number
       N/A  Friction or shear velocity [m/s]
       N/A  Mixing layer depth [m]
       N/A  Mean hub u'w' Reynolds stress
       N/A  Mean hub u'v' Reynolds stress
       N/A  Mean hub v'w' Reynolds stress


Spatial Coherence Models:

       IEC  u-component coherence model
      NONE  v-component coherence model
      NONE  w-component coherence model
(   12.000, 0.353E-03)  u-component coherence parameters
                   N/A  v-component coherence parameters
                   N/A  w-component coherence parameters
       N/A  Coherence exponent


You have requested that the following file(s) be generated:

   6_70.bts (AeroDyn/TurbSim full-field wind file)


Turbulence Simulation Scaling Parameter Summary:

   Turbulence model used                            =  IEC Kaimal
   Turbulence characteristic                        =  User-specified
   IEC standard                                     =  IEC 61400-3 Ed. 1: 2006
   Mean wind speed at hub height                    =   70.000 m/s
   Characteristic value of standard deviation       =    7.700 m/s
   Turbulence scale                                 =   42.000 m
   u-component integral scale                       =  340.200 m
   Coherency scale                                  =  340.200 m
   Characteristic value of hub turbulence intensity =   11.000%
   Gradient Richardson number                       =    0.000

   Wind profile type                                =  Power law on rotor disk, logarithmic elsewhere
   Power law exponent                               =    0.140
   Mean shear across rotor disk                     =    0.165 (m/s)/m
   Assumed rotor diameter                           =  165.000 m
   Surface roughness length                         =    0.030 m

   Nyquist frequency of turbulent wind field        =   10.000 Hz

   Number of time steps in the FFT                  =    72600
   Number of time steps output                      =    72600
   Number of points simulated                       =      169


Mean Flow Angles:

   Vertical   =   0.0 degrees
   Horizontal =   0.0 degrees

Mean Wind Speed Profile:

   Height    Wind Speed   Horizontal Angle  Vertical Angle  U-comp (X)   V-comp (Y)   W-comp (Z)
     (m)        (m/s)         (degrees)       (degrees)       (m/s)        (m/s)        (m/s)   
   ------    ----------   ----------------  --------------  ----------   ----------   ----------
    172.5       76.68            0.00            0.00         76.68         0.00         0.00
    158.8       75.79            0.00            0.00         75.79         0.00         0.00
    145.0       74.83            0.00            0.00         74.83         0.00         0.00
    131.2       73.80            0.00            0.00         73.80         0.00         0.00
    117.5       72.66            0.00            0.00         72.66         0.00         0.00
    103.8       71.41            0.00            0.00         71.41         0.00         0.00
     90.0       70.00            0.00            0.00         70.00         0.00         0.00
     76.2       68.39            0.00            0.00         68.39         0.00         0.00
     62.5       66.52            0.00            0.00         66.52         0.00         0.00
     48.8       64.24            0.00            0.00         64.24         0.00         0.00
     35.0       61.33            0.00            0.00         61.33         0.00         0.00
     21.2       57.19            0.00            0.00         57.19         0.00         0.00
      7.5       49.43            0.00            0.00         49.43         0.00         0.00


Harvested Random Seeds after Generation of the Random Numbers:

    625370864 Harvested seed # 1
   1223978853 Harvested seed # 2


Hub-Height Simulated Turbulence Statistical Summary:

   Type of Wind        Min (m/s)   Mean (m/s)    Max (m/s)  Sigma (m/s)       TI (%)
   ----------------    ---------   ----------    ---------  -----------       ------
   Longitudinal (u)        41.01        70.00       100.83        7.728       11.040
   Lateral (v)            -24.22         0.00        28.81        6.011        8.587
   Vertical (w)           -14.54        -0.00        15.06        3.616        5.166
   U component             41.01        70.00       100.83        7.728       11.040
   V component            -24.22         0.00        28.81        6.011        8.587
   W component            -14.54        -0.00        15.06        3.616        5.166
   Horizontal (U&V)        41.09        70.26       100.96        7.704       10.964
   Total                   41.10        70.35       100.97        7.695       10.937

                       Min Reynolds     Mean Reynolds    Max Reynolds    Correlation
   Product             Stress (m/s)^2   Stress (m/s)^2   Stress (m/s)^2  Coefficient
   ----------------    --------------   --------------   --------------  -----------
   u'w'                   -346.291            -0.201           233.447        -0.007
   u'v'                   -341.999             1.968           444.660         0.042
   v'w'                   -273.490            -0.324           168.444        -0.015


   Friction Velocity (Ustar)  =      0.448 m/s
   Maximum Instantaneous TKE  =    509.094 (m/s)^2
   Maximum Instantaneous CTKE =    225.569 (m/s)^2


Grid Point Variance Summary:

   Y-coord  -82.50  -68.75  -55.00  -41.25  -27.50  -13.75    0.00   13.75   27.50   41.25   55.00   68.75   82.50

   Height   Standard deviation at grid points for the u component:
   172.50    7.709   7.749   7.795   7.861   7.847   7.796   7.850   7.839   7.839   8.000   8.042   7.888   7.695
   158.75    7.683   7.710   7.867   7.880   7.796   7.810   7.819   7.782   7.784   7.907   7.981   7.862   7.847
   145.00    7.732   7.780   7.854   7.833   7.908   7.834   7.812   7.811   7.735   7.917   7.888   7.783   7.742
   131.25    7.849   7.905   7.806   7.731   7.852   7.789   7.837   7.753   7.701   7.647   7.762   7.744   7.789
   117.50    7.755   7.814   7.674   7.747   7.716   7.804   7.695   7.660   7.754   7.722   7.782   7.799   7.913
   103.75    7.775   7.768   7.675   7.566   7.680   7.690   7.661   7.679   7.782   7.847   7.739   7.758   7.774
    90.00    7.638   7.683   7.609   7.500   7.593   7.609   7.728   7.729   7.765   7.758   7.771   7.695   7.770
    76.25    7.660   7.619   7.467   7.493   7.343   7.535   7.712   7.708   7.655   7.596   7.679   7.615   7.622
    62.50    7.698   7.488   7.380   7.299   7.348   7.429   7.648   7.676   7.647   7.515   7.532   7.539   7.608
    48.75    7.636   7.409   7.353   7.344   7.376   7.488   7.603   7.627   7.611   7.518   7.598   7.471   7.492
    35.00    7.581   7.512   7.380   7.298   7.311   7.431   7.488   7.410   7.510   7.630   7.635   7.572   7.502
    21.25    7.554   7.526   7.414   7.325   7.304   7.402   7.431   7.469   7.531   7.542   7.688   7.587   7.528
     7.50    7.602   7.592   7.410   7.457   7.481   7.378   7.427   7.466   7.551   7.606   7.631   7.637   7.559

   Height   Standard deviation at grid points for the v component:
   172.50    6.011   6.011   6.011   6.011   6.011   6.011   6.011   6.011   6.011   6.011   6.011   6.011   6.011
   158.75    6.011   6.011   6.011   6.011   6.011   6.011   6.011   6.011   6.011   6.011   6.011   6.011   6.011
   145.00    6.011   6.011   6.011   6.011   6.011   6.011   6.011   6.011   6.011   6.011   6.011   6.011   6.011
   131.25    6.011   6.011   6.011   6.011   6.011   6.011   6.011   6.011   6.011   6.011   6.011   6.011   6.011
   117.50    6.011   6.011   6.011   6.011   6.011   6.011   6.011   6.011   6.011   6.011   6.011   6.011   6.011
   103.75    6.011   6.011   6.011   6.011   6.011   6.011   6.011   6.011   6.011   6.011   6.011   6.011   6.011
    90.00    6.011   6.011   6.011   6.011   6.011   6.011   6.011   6.011   6.011   6.011   6.011   6.011   6.011
    76.25    6.011   6.011   6.011   6.011   6.011   6.011   6.011   6.011   6.011   6.011   6.011   6.011   6.011
    62.50    6.011   6.011   6.011   6.011   6.011   6.011   6.011   6.011   6.011   6.011   6.011   6.011   6.011
    48.75    6.011   6.011   6.011   6.011   6.011   6.011   6.011   6.011   6.011   6.011   6.011   6.011   6.011
    35.00    6.011   6.011   6.011   6.011   6.011   6.011   6.011   6.011   6.011   6.011   6.011   6.011   6.011
    21.25    6.011   6.011   6.011   6.011   6.011   6.011   6.011   6.011   6.011   6.011   6.011   6.011   6.011
     7.50    6.011   6.011   6.011   6.011   6.011   6.011   6.011   6.011   6.011   6.011   6.011   6.011   6.011

   Height   Standard deviation at grid points for the w component:
   172.50    3.616   3.616   3.616   3.616   3.616   3.616   3.616   3.616   3.616   3.616   3.616   3.616   3.616
   158.75    3.616   3.616   3.616   3.616   3.616   3.616   3.616   3.616   3.616   3.616   3.616   3.616   3.616
   145.00    3.616   3.616   3.616   3.616   3.616   3.616   3.616   3.616   3.616   3.616   3.616   3.616   3.616
   131.25    3.616   3.616   3.616   3.616   3.616   3.616   3.616   3.616   3.616   3.616   3.616   3.616   3.616
   117.50    3.616   3.616   3.616   3.616   3.616   3.616   3.616   3.616   3.616   3.616   3.616   3.616   3.616
   103.75    3.616   3.616   3.616   3.616   3.616   3.616   3.616   3.616   3.616   3.616   3.616   3.616   3.616
    90.00    3.616   3.616   3.616   3.616   3.616   3.616   3.616   3.616   3.616   3.616   3.616   3.616   3.616
    76.25    3.616   3.616   3.616   3.616   3.616   3.616   3.616   3.616   3.616   3.616   3.616   3.616   3.616
    62.50    3.616   3.616   3.616   3.616   3.616   3.616   3.616   3.616   3.616   3.616   3.616   3.616   3.616
    48.75    3.616   3.616   3.616   3.616   3.616   3.616   3.616   3.616   3.616   3.616   3.616   3.616   3.616
    35.00    3.616   3.616   3.616   3.616   3.616   3.616   3.616   3.616   3.616   3.616   3.616   3.616   3.616
    21.25    3.616   3.616   3.616   3.616   3.616   3.616   3.616   3.616   3.616   3.616   3.616   3.616   3.616
     7.50    3.616   3.616   3.616   3.616   3.616   3.616   3.616   3.616   3.616   3.616   3.616   3.616   3.616

   Mean standard deviation across all grid points:
      u component:    7.656 m/s
      v component:    6.011 m/s
      w component:    3.616 m/s


U-component (X) statistics from the interpolated hub point:

   Mean =  70.0000 m/s
   TI   =  11.0396 %


Processing complete.  16.234 CPU seconds used.
