
This summary file was generated by TurbSim (v2.00.07a-bjj, 14-Jun-2016) on 23-Mar-2020 at 10:46:31.


Runtime Options:

        61  Random seed #1
        62  Random seed #2
         F  Output binary HH turbulence parameters?
         F  Output formatted turbulence parameters?
         F  Output AeroDyn HH files?
         T  Output AeroDyn FF files?
         F  Output BLADED FF files?
         F  Output tower data?
         F  Output formatted FF files?
         F  Output coherent turbulence time step file?
         T  Clockwise rotation when looking downwind?
 0 -  NONE  IEC turbulence models scaled to exact specified standard deviation


Turbine/Model Specifications:

        13  Vertical grid-point matrix dimension
        13  Horizontal grid-point matrix dimension
     0.050  Time step [seconds]
  3630.000  Analysis time [seconds]
  3630.000  Usable output time [seconds]
    90.000  Hub height [m]
   165.000  Grid height [m]
   165.000  Grid width [m]
     0.000  Vertical flow angle [degrees]
     0.000  Horizontal flow angle [degrees]


Meteorological Boundary Conditions:

    IECKAI  IEC Kaimal spectral model
         3  IEC standard: IEC 61400-3 Ed. 1: 2006
    11.000  Percent turbulence intensity, IEC 61400-3 Ed. 1: 2006
       NTM  IEC Normal Turbulence Model
       N/A  IEC Extreme Turbulence Model (ETM) "c" parameter [m/s]
       IEC  Wind profile type
    90.000  Reference height [m]
    75.000  Reference wind speed [m/s]
       N/A  Jet height [m]
     0.140  Power law exponent
     0.030  Surface roughness length [m]


Non-IEC Meteorological Boundary Conditions:

       N/A  Site latitude [degrees]
       N/A  Gradient Richardson number
       N/A  Friction or shear velocity [m/s]
       N/A  Mixing layer depth [m]
       N/A  Mean hub u'w' Reynolds stress
       N/A  Mean hub u'v' Reynolds stress
       N/A  Mean hub v'w' Reynolds stress


Spatial Coherence Models:

       IEC  u-component coherence model
      NONE  v-component coherence model
      NONE  w-component coherence model
(   12.000, 0.353E-03)  u-component coherence parameters
                   N/A  v-component coherence parameters
                   N/A  w-component coherence parameters
       N/A  Coherence exponent


You have requested that the following file(s) be generated:

   6_75.bts (AeroDyn/TurbSim full-field wind file)


Turbulence Simulation Scaling Parameter Summary:

   Turbulence model used                            =  IEC Kaimal
   Turbulence characteristic                        =  User-specified
   IEC standard                                     =  IEC 61400-3 Ed. 1: 2006
   Mean wind speed at hub height                    =   75.000 m/s
   Characteristic value of standard deviation       =    8.250 m/s
   Turbulence scale                                 =   42.000 m
   u-component integral scale                       =  340.200 m
   Coherency scale                                  =  340.200 m
   Characteristic value of hub turbulence intensity =   11.000%
   Gradient Richardson number                       =    0.000

   Wind profile type                                =  Power law on rotor disk, logarithmic elsewhere
   Power law exponent                               =    0.140
   Mean shear across rotor disk                     =    0.177 (m/s)/m
   Assumed rotor diameter                           =  165.000 m
   Surface roughness length                         =    0.030 m

   Nyquist frequency of turbulent wind field        =   10.000 Hz

   Number of time steps in the FFT                  =    72600
   Number of time steps output                      =    72600
   Number of points simulated                       =      169


Mean Flow Angles:

   Vertical   =   0.0 degrees
   Horizontal =   0.0 degrees

Mean Wind Speed Profile:

   Height    Wind Speed   Horizontal Angle  Vertical Angle  U-comp (X)   V-comp (Y)   W-comp (Z)
     (m)        (m/s)         (degrees)       (degrees)       (m/s)        (m/s)        (m/s)   
   ------    ----------   ----------------  --------------  ----------   ----------   ----------
    172.5       82.15            0.00            0.00         82.15         0.00         0.00
    158.8       81.20            0.00            0.00         81.20         0.00         0.00
    145.0       80.18            0.00            0.00         80.18         0.00         0.00
    131.2       79.07            0.00            0.00         79.07         0.00         0.00
    117.5       77.85            0.00            0.00         77.85         0.00         0.00
    103.8       76.51            0.00            0.00         76.51         0.00         0.00
     90.0       75.00            0.00            0.00         75.00         0.00         0.00
     76.2       73.28            0.00            0.00         73.28         0.00         0.00
     62.5       71.27            0.00            0.00         71.27         0.00         0.00
     48.8       68.83            0.00            0.00         68.83         0.00         0.00
     35.0       65.71            0.00            0.00         65.71         0.00         0.00
     21.2       61.28            0.00            0.00         61.28         0.00         0.00
      7.5       52.96            0.00            0.00         52.96         0.00         0.00


Harvested Random Seeds after Generation of the Random Numbers:

    625370864 Harvested seed # 1
   1223978853 Harvested seed # 2


Hub-Height Simulated Turbulence Statistical Summary:

   Type of Wind        Min (m/s)   Mean (m/s)    Max (m/s)  Sigma (m/s)       TI (%)
   ----------------    ---------   ----------    ---------  -----------       ------
   Longitudinal (u)        43.54        75.00       108.18        8.273       11.030
   Lateral (v)            -25.88         0.00        30.70        6.433        8.577
   Vertical (w)           -15.56        -0.00        16.14        3.862        5.150
   U component             43.54        75.00       108.18        8.273       11.030
   V component            -25.88         0.00        30.70        6.433        8.577
   W component            -15.56        -0.00        16.14        3.862        5.150
   Horizontal (U&V)        43.61        75.28       108.32        8.247       10.955
   Total                   43.63        75.38       108.32        8.238       10.928

                       Min Reynolds     Mean Reynolds    Max Reynolds    Correlation
   Product             Stress (m/s)^2   Stress (m/s)^2   Stress (m/s)^2  Coefficient
   ----------------    --------------   --------------   --------------  -----------
   u'w'                   -395.844            -0.227           272.708        -0.007
   u'v'                   -393.366             2.190           512.632         0.041
   v'w'                   -310.135            -0.362           194.415        -0.015


   Friction Velocity (Ustar)  =      0.476 m/s
   Maximum Instantaneous TKE  =    587.312 (m/s)^2
   Maximum Instantaneous CTKE =    260.023 (m/s)^2


Grid Point Variance Summary:

   Y-coord  -82.50  -68.75  -55.00  -41.25  -27.50  -13.75    0.00   13.75   27.50   41.25   55.00   68.75   82.50

   Height   Standard deviation at grid points for the u component:
   172.50    8.251   8.294   8.336   8.402   8.388   8.333   8.390   8.376   8.378   8.546   8.584   8.430   8.229
   158.75    8.223   8.252   8.412   8.420   8.339   8.352   8.363   8.325   8.323   8.449   8.526   8.403   8.386
   145.00    8.275   8.324   8.399   8.375   8.452   8.379   8.358   8.356   8.273   8.462   8.433   8.327   8.283
   131.25    8.392   8.452   8.349   8.274   8.402   8.329   8.383   8.300   8.245   8.185   8.309   8.293   8.335
   117.50    8.296   8.356   8.212   8.288   8.260   8.349   8.237   8.204   8.298   8.263   8.327   8.347   8.463
   103.75    8.323   8.314   8.215   8.106   8.223   8.234   8.202   8.219   8.329   8.394   8.282   8.303   8.318
    90.00    8.182   8.229   8.153   8.039   8.132   8.149   8.273   8.271   8.307   8.300   8.313   8.239   8.319
    76.25    8.205   8.164   8.004   8.031   7.872   8.071   8.255   8.252   8.194   8.133   8.218   8.157   8.161
    62.50    8.245   8.026   7.914   7.830   7.879   7.961   8.187   8.213   8.180   8.046   8.066   8.076   8.147
    48.75    8.180   7.945   7.887   7.875   7.909   8.024   8.142   8.165   8.149   8.050   8.136   8.007   8.026
    35.00    8.122   8.048   7.915   7.825   7.837   7.962   8.025   7.944   8.044   8.171   8.176   8.112   8.035
    21.25    8.091   8.065   7.948   7.854   7.834   7.936   7.965   8.002   8.071   8.081   8.228   8.125   8.059
     7.50    8.141   8.132   7.948   7.998   8.020   7.911   7.964   8.001   8.091   8.146   8.169   8.175   8.094

   Height   Standard deviation at grid points for the v component:
   172.50    6.433   6.433   6.433   6.433   6.433   6.433   6.433   6.433   6.433   6.433   6.433   6.433   6.433
   158.75    6.433   6.433   6.433   6.433   6.433   6.433   6.433   6.433   6.433   6.433   6.433   6.433   6.433
   145.00    6.433   6.433   6.433   6.433   6.433   6.433   6.433   6.433   6.433   6.433   6.433   6.433   6.433
   131.25    6.433   6.433   6.433   6.433   6.433   6.433   6.433   6.433   6.433   6.433   6.433   6.433   6.433
   117.50    6.433   6.433   6.433   6.433   6.433   6.433   6.433   6.433   6.433   6.433   6.433   6.433   6.433
   103.75    6.433   6.433   6.433   6.433   6.433   6.433   6.433   6.433   6.433   6.433   6.433   6.433   6.433
    90.00    6.433   6.433   6.433   6.433   6.433   6.433   6.433   6.433   6.433   6.433   6.433   6.433   6.433
    76.25    6.433   6.433   6.433   6.433   6.433   6.433   6.433   6.433   6.433   6.433   6.433   6.433   6.433
    62.50    6.433   6.433   6.433   6.433   6.433   6.433   6.433   6.433   6.433   6.433   6.433   6.433   6.433
    48.75    6.433   6.433   6.433   6.433   6.433   6.433   6.433   6.433   6.433   6.433   6.433   6.433   6.433
    35.00    6.433   6.433   6.433   6.433   6.433   6.433   6.433   6.433   6.433   6.433   6.433   6.433   6.433
    21.25    6.433   6.433   6.433   6.433   6.433   6.433   6.433   6.433   6.433   6.433   6.433   6.433   6.433
     7.50    6.433   6.433   6.433   6.433   6.433   6.433   6.433   6.433   6.433   6.433   6.433   6.433   6.433

   Height   Standard deviation at grid points for the w component:
   172.50    3.862   3.862   3.862   3.862   3.862   3.862   3.862   3.862   3.862   3.862   3.862   3.862   3.862
   158.75    3.862   3.862   3.862   3.862   3.862   3.862   3.862   3.862   3.862   3.862   3.862   3.862   3.862
   145.00    3.862   3.862   3.862   3.862   3.862   3.862   3.862   3.862   3.862   3.862   3.862   3.862   3.862
   131.25    3.862   3.862   3.862   3.862   3.862   3.862   3.862   3.862   3.862   3.862   3.862   3.862   3.862
   117.50    3.862   3.862   3.862   3.862   3.862   3.862   3.862   3.862   3.862   3.862   3.862   3.862   3.862
   103.75    3.862   3.862   3.862   3.862   3.862   3.862   3.862   3.862   3.862   3.862   3.862   3.862   3.862
    90.00    3.862   3.862   3.862   3.862   3.862   3.862   3.862   3.862   3.862   3.862   3.862   3.862   3.862
    76.25    3.862   3.862   3.862   3.862   3.862   3.862   3.862   3.862   3.862   3.862   3.862   3.862   3.862
    62.50    3.862   3.862   3.862   3.862   3.862   3.862   3.862   3.862   3.862   3.862   3.862   3.862   3.862
    48.75    3.862   3.862   3.862   3.862   3.862   3.862   3.862   3.862   3.862   3.862   3.862   3.862   3.862
    35.00    3.862   3.862   3.862   3.862   3.862   3.862   3.862   3.862   3.862   3.862   3.862   3.862   3.862
    21.25    3.862   3.862   3.862   3.862   3.862   3.862   3.862   3.862   3.862   3.862   3.862   3.862   3.862
     7.50    3.862   3.862   3.862   3.862   3.862   3.862   3.862   3.862   3.862   3.862   3.862   3.862   3.862

   Mean standard deviation across all grid points:
      u component:    8.196 m/s
      v component:    6.433 m/s
      w component:    3.862 m/s


U-component (X) statistics from the interpolated hub point:

   Mean =  75.0000 m/s
   TI   =  11.0300 %


Processing complete.  16.031 CPU seconds used.
