
This summary file was generated by TurbSim (v2.00.07a-bjj, 14-Jun-2016) on 23-Mar-2020 at 10:46:53.


Runtime Options:

        61  Random seed #1
        62  Random seed #2
         F  Output binary HH turbulence parameters?
         F  Output formatted turbulence parameters?
         F  Output AeroDyn HH files?
         T  Output AeroDyn FF files?
         F  Output BLADED FF files?
         F  Output tower data?
         F  Output formatted FF files?
         F  Output coherent turbulence time step file?
         T  Clockwise rotation when looking downwind?
 0 -  NONE  IEC turbulence models scaled to exact specified standard deviation


Turbine/Model Specifications:

        13  Vertical grid-point matrix dimension
        13  Horizontal grid-point matrix dimension
     0.050  Time step [seconds]
  3630.000  Analysis time [seconds]
  3630.000  Usable output time [seconds]
    90.000  Hub height [m]
   165.000  Grid height [m]
   165.000  Grid width [m]
     0.000  Vertical flow angle [degrees]
     0.000  Horizontal flow angle [degrees]


Meteorological Boundary Conditions:

    IECKAI  IEC Kaimal spectral model
         3  IEC standard: IEC 61400-3 Ed. 1: 2006
    11.000  Percent turbulence intensity, IEC 61400-3 Ed. 1: 2006
       NTM  IEC Normal Turbulence Model
       N/A  IEC Extreme Turbulence Model (ETM) "c" parameter [m/s]
       IEC  Wind profile type
    90.000  Reference height [m]
    80.000  Reference wind speed [m/s]
       N/A  Jet height [m]
     0.140  Power law exponent
     0.030  Surface roughness length [m]


Non-IEC Meteorological Boundary Conditions:

       N/A  Site latitude [degrees]
       N/A  Gradient Richardson number
       N/A  Friction or shear velocity [m/s]
       N/A  Mixing layer depth [m]
       N/A  Mean hub u'w' Reynolds stress
       N/A  Mean hub u'v' Reynolds stress
       N/A  Mean hub v'w' Reynolds stress


Spatial Coherence Models:

       IEC  u-component coherence model
      NONE  v-component coherence model
      NONE  w-component coherence model
(   12.000, 0.353E-03)  u-component coherence parameters
                   N/A  v-component coherence parameters
                   N/A  w-component coherence parameters
       N/A  Coherence exponent


You have requested that the following file(s) be generated:

   6_80.bts (AeroDyn/TurbSim full-field wind file)


Turbulence Simulation Scaling Parameter Summary:

   Turbulence model used                            =  IEC Kaimal
   Turbulence characteristic                        =  User-specified
   IEC standard                                     =  IEC 61400-3 Ed. 1: 2006
   Mean wind speed at hub height                    =   80.000 m/s
   Characteristic value of standard deviation       =    8.800 m/s
   Turbulence scale                                 =   42.000 m
   u-component integral scale                       =  340.200 m
   Coherency scale                                  =  340.200 m
   Characteristic value of hub turbulence intensity =   11.000%
   Gradient Richardson number                       =    0.000

   Wind profile type                                =  Power law on rotor disk, logarithmic elsewhere
   Power law exponent                               =    0.140
   Mean shear across rotor disk                     =    0.189 (m/s)/m
   Assumed rotor diameter                           =  165.000 m
   Surface roughness length                         =    0.030 m

   Nyquist frequency of turbulent wind field        =   10.000 Hz

   Number of time steps in the FFT                  =    72600
   Number of time steps output                      =    72600
   Number of points simulated                       =      169


Mean Flow Angles:

   Vertical   =   0.0 degrees
   Horizontal =   0.0 degrees

Mean Wind Speed Profile:

   Height    Wind Speed   Horizontal Angle  Vertical Angle  U-comp (X)   V-comp (Y)   W-comp (Z)
     (m)        (m/s)         (degrees)       (degrees)       (m/s)        (m/s)        (m/s)   
   ------    ----------   ----------------  --------------  ----------   ----------   ----------
    172.5       87.63            0.00            0.00         87.63         0.00         0.00
    158.8       86.62            0.00            0.00         86.62         0.00         0.00
    145.0       85.52            0.00            0.00         85.52         0.00         0.00
    131.2       84.34            0.00            0.00         84.34         0.00         0.00
    117.5       83.04            0.00            0.00         83.04         0.00         0.00
    103.8       81.61            0.00            0.00         81.61         0.00         0.00
     90.0       80.00            0.00            0.00         80.00         0.00         0.00
     76.2       78.16            0.00            0.00         78.16         0.00         0.00
     62.5       76.02            0.00            0.00         76.02         0.00         0.00
     48.8       73.42            0.00            0.00         73.42         0.00         0.00
     35.0       70.09            0.00            0.00         70.09         0.00         0.00
     21.2       65.36            0.00            0.00         65.36         0.00         0.00
      7.5       56.49            0.00            0.00         56.49         0.00         0.00


Harvested Random Seeds after Generation of the Random Numbers:

    625370864 Harvested seed # 1
   1223978853 Harvested seed # 2


Hub-Height Simulated Turbulence Statistical Summary:

   Type of Wind        Min (m/s)   Mean (m/s)    Max (m/s)  Sigma (m/s)       TI (%)
   ----------------    ---------   ----------    ---------  -----------       ------
   Longitudinal (u)        46.09        80.00       115.51        8.816       11.020
   Lateral (v)            -27.53         0.00        32.58        6.854        8.568
   Vertical (w)           -16.57        -0.00        17.21        4.108        5.135
   U component             46.09        80.00       115.51        8.816       11.020
   V component            -27.53         0.00        32.58        6.854        8.568
   W component            -16.57        -0.00        17.21        4.108        5.135
   Horizontal (U&V)        46.16        80.30       115.65        8.789       10.946
   Total                   46.18        80.40       115.66        8.779       10.919

                       Min Reynolds     Mean Reynolds    Max Reynolds    Correlation
   Product             Stress (m/s)^2   Stress (m/s)^2   Stress (m/s)^2  Coefficient
   ----------------    --------------   --------------   --------------  -----------
   u'w'                   -448.215            -0.255           314.831        -0.007
   u'v'                   -447.577             2.419           584.625         0.040
   v'w'                   -348.656            -0.402           223.920        -0.014


   Friction Velocity (Ustar)  =      0.505 m/s
   Maximum Instantaneous TKE  =    669.848 (m/s)^2
   Maximum Instantaneous CTKE =    296.520 (m/s)^2


Grid Point Variance Summary:

   Y-coord  -82.50  -68.75  -55.00  -41.25  -27.50  -13.75    0.00   13.75   27.50   41.25   55.00   68.75   82.50

   Height   Standard deviation at grid points for the u component:
   172.50    8.793   8.838   8.876   8.942   8.928   8.869   8.929   8.913   8.916   9.090   9.124   8.971   8.763
   158.75    8.762   8.793   8.955   8.960   8.881   8.893   8.907   8.867   8.862   8.990   9.070   8.944   8.925
   145.00    8.818   8.866   8.944   8.917   8.995   8.924   8.903   8.900   8.810   9.005   8.977   8.871   8.824
   131.25    8.934   8.998   8.891   8.816   8.952   8.868   8.927   8.846   8.788   8.722   8.855   8.841   8.881
   117.50    8.837   8.898   8.750   8.830   8.803   8.894   8.777   8.746   8.840   8.803   8.870   8.895   9.012
   103.75    8.870   8.859   8.756   8.645   8.765   8.777   8.743   8.759   8.876   8.940   8.824   8.848   8.861
    90.00    8.725   8.774   8.697   8.579   8.671   8.689   8.816   8.812   8.849   8.841   8.855   8.781   8.867
    76.25    8.749   8.709   8.542   8.568   8.401   8.606   8.797   8.794   8.731   8.670   8.757   8.699   8.701
    62.50    8.791   8.564   8.449   8.362   8.410   8.492   8.725   8.750   8.713   8.576   8.600   8.613   8.686
    48.75    8.722   8.481   8.420   8.407   8.441   8.559   8.680   8.704   8.687   8.582   8.673   8.543   8.560
    35.00    8.663   8.584   8.450   8.351   8.364   8.493   8.563   8.478   8.579   8.712   8.717   8.651   8.567
    21.25    8.629   8.603   8.482   8.383   8.364   8.470   8.500   8.535   8.611   8.620   8.767   8.662   8.589
     7.50    8.680   8.671   8.486   8.538   8.560   8.444   8.501   8.536   8.632   8.686   8.708   8.712   8.629

   Height   Standard deviation at grid points for the v component:
   172.50    6.854   6.854   6.854   6.854   6.854   6.854   6.854   6.854   6.854   6.854   6.854   6.854   6.854
   158.75    6.854   6.854   6.854   6.854   6.854   6.854   6.854   6.854   6.854   6.854   6.854   6.854   6.854
   145.00    6.854   6.854   6.854   6.854   6.854   6.854   6.854   6.854   6.854   6.854   6.854   6.854   6.854
   131.25    6.854   6.854   6.854   6.854   6.854   6.854   6.854   6.854   6.854   6.854   6.854   6.854   6.854
   117.50    6.854   6.854   6.854   6.854   6.854   6.854   6.854   6.854   6.854   6.854   6.854   6.854   6.854
   103.75    6.854   6.854   6.854   6.854   6.854   6.854   6.854   6.854   6.854   6.854   6.854   6.854   6.854
    90.00    6.854   6.854   6.854   6.854   6.854   6.854   6.854   6.854   6.854   6.854   6.854   6.854   6.854
    76.25    6.854   6.854   6.854   6.854   6.854   6.854   6.854   6.854   6.854   6.854   6.854   6.854   6.854
    62.50    6.854   6.854   6.854   6.854   6.854   6.854   6.854   6.854   6.854   6.854   6.854   6.854   6.854
    48.75    6.854   6.854   6.854   6.854   6.854   6.854   6.854   6.854   6.854   6.854   6.854   6.854   6.854
    35.00    6.854   6.854   6.854   6.854   6.854   6.854   6.854   6.854   6.854   6.854   6.854   6.854   6.854
    21.25    6.854   6.854   6.854   6.854   6.854   6.854   6.854   6.854   6.854   6.854   6.854   6.854   6.854
     7.50    6.854   6.854   6.854   6.854   6.854   6.854   6.854   6.854   6.854   6.854   6.854   6.854   6.854

   Height   Standard deviation at grid points for the w component:
   172.50    4.108   4.108   4.108   4.108   4.108   4.108   4.108   4.108   4.108   4.108   4.108   4.108   4.108
   158.75    4.108   4.108   4.108   4.108   4.108   4.108   4.108   4.108   4.108   4.108   4.108   4.108   4.108
   145.00    4.108   4.108   4.108   4.108   4.108   4.108   4.108   4.108   4.108   4.108   4.108   4.108   4.108
   131.25    4.108   4.108   4.108   4.108   4.108   4.108   4.108   4.108   4.108   4.108   4.108   4.108   4.108
   117.50    4.108   4.108   4.108   4.108   4.108   4.108   4.108   4.108   4.108   4.108   4.108   4.108   4.108
   103.75    4.108   4.108   4.108   4.108   4.108   4.108   4.108   4.108   4.108   4.108   4.108   4.108   4.108
    90.00    4.108   4.108   4.108   4.108   4.108   4.108   4.108   4.108   4.108   4.108   4.108   4.108   4.108
    76.25    4.108   4.108   4.108   4.108   4.108   4.108   4.108   4.108   4.108   4.108   4.108   4.108   4.108
    62.50    4.108   4.108   4.108   4.108   4.108   4.108   4.108   4.108   4.108   4.108   4.108   4.108   4.108
    48.75    4.108   4.108   4.108   4.108   4.108   4.108   4.108   4.108   4.108   4.108   4.108   4.108   4.108
    35.00    4.108   4.108   4.108   4.108   4.108   4.108   4.108   4.108   4.108   4.108   4.108   4.108   4.108
    21.25    4.108   4.108   4.108   4.108   4.108   4.108   4.108   4.108   4.108   4.108   4.108   4.108   4.108
     7.50    4.108   4.108   4.108   4.108   4.108   4.108   4.108   4.108   4.108   4.108   4.108   4.108   4.108

   Mean standard deviation across all grid points:
      u component:    8.736 m/s
      v component:    6.854 m/s
      w component:    4.108 m/s


U-component (X) statistics from the interpolated hub point:

   Mean =  80.0000 m/s
   TI   =  11.0199 %


Processing complete.  16.328 CPU seconds used.
