
This summary file was generated by TurbSim (v2.00.07a-bjj, 14-Jun-2016) on 23-Mar-2020 at 10:47:38.


Runtime Options:

        61  Random seed #1
        62  Random seed #2
         F  Output binary HH turbulence parameters?
         F  Output formatted turbulence parameters?
         F  Output AeroDyn HH files?
         T  Output AeroDyn FF files?
         F  Output BLADED FF files?
         F  Output tower data?
         F  Output formatted FF files?
         F  Output coherent turbulence time step file?
         T  Clockwise rotation when looking downwind?
 0 -  NONE  IEC turbulence models scaled to exact specified standard deviation


Turbine/Model Specifications:

        13  Vertical grid-point matrix dimension
        13  Horizontal grid-point matrix dimension
     0.050  Time step [seconds]
  3630.000  Analysis time [seconds]
  3630.000  Usable output time [seconds]
    90.000  Hub height [m]
   165.000  Grid height [m]
   165.000  Grid width [m]
     0.000  Vertical flow angle [degrees]
     0.000  Horizontal flow angle [degrees]


Meteorological Boundary Conditions:

    IECKAI  IEC Kaimal spectral model
         3  IEC standard: IEC 61400-3 Ed. 1: 2006
    11.000  Percent turbulence intensity, IEC 61400-3 Ed. 1: 2006
       NTM  IEC Normal Turbulence Model
       N/A  IEC Extreme Turbulence Model (ETM) "c" parameter [m/s]
       IEC  Wind profile type
    90.000  Reference height [m]
    90.000  Reference wind speed [m/s]
       N/A  Jet height [m]
     0.140  Power law exponent
     0.030  Surface roughness length [m]


Non-IEC Meteorological Boundary Conditions:

       N/A  Site latitude [degrees]
       N/A  Gradient Richardson number
       N/A  Friction or shear velocity [m/s]
       N/A  Mixing layer depth [m]
       N/A  Mean hub u'w' Reynolds stress
       N/A  Mean hub u'v' Reynolds stress
       N/A  Mean hub v'w' Reynolds stress


Spatial Coherence Models:

       IEC  u-component coherence model
      NONE  v-component coherence model
      NONE  w-component coherence model
(   12.000, 0.353E-03)  u-component coherence parameters
                   N/A  v-component coherence parameters
                   N/A  w-component coherence parameters
       N/A  Coherence exponent


You have requested that the following file(s) be generated:

   6_90.bts (AeroDyn/TurbSim full-field wind file)


Turbulence Simulation Scaling Parameter Summary:

   Turbulence model used                            =  IEC Kaimal
   Turbulence characteristic                        =  User-specified
   IEC standard                                     =  IEC 61400-3 Ed. 1: 2006
   Mean wind speed at hub height                    =   90.000 m/s
   Characteristic value of standard deviation       =    9.900 m/s
   Turbulence scale                                 =   42.000 m
   u-component integral scale                       =  340.200 m
   Coherency scale                                  =  340.200 m
   Characteristic value of hub turbulence intensity =   11.000%
   Gradient Richardson number                       =    0.000

   Wind profile type                                =  Power law on rotor disk, logarithmic elsewhere
   Power law exponent                               =    0.140
   Mean shear across rotor disk                     =    0.212 (m/s)/m
   Assumed rotor diameter                           =  165.000 m
   Surface roughness length                         =    0.030 m

   Nyquist frequency of turbulent wind field        =   10.000 Hz

   Number of time steps in the FFT                  =    72600
   Number of time steps output                      =    72600
   Number of points simulated                       =      169


Mean Flow Angles:

   Vertical   =   0.0 degrees
   Horizontal =   0.0 degrees

Mean Wind Speed Profile:

   Height    Wind Speed   Horizontal Angle  Vertical Angle  U-comp (X)   V-comp (Y)   W-comp (Z)
     (m)        (m/s)         (degrees)       (degrees)       (m/s)        (m/s)        (m/s)   
   ------    ----------   ----------------  --------------  ----------   ----------   ----------
    172.5       98.58            0.00            0.00         98.58         0.00         0.00
    158.8       97.44            0.00            0.00         97.44         0.00         0.00
    145.0       96.21            0.00            0.00         96.21         0.00         0.00
    131.2       94.88            0.00            0.00         94.88         0.00         0.00
    117.5       93.42            0.00            0.00         93.42         0.00         0.00
    103.8       91.81            0.00            0.00         91.81         0.00         0.00
     90.0       90.00            0.00            0.00         90.00         0.00         0.00
     76.2       87.94            0.00            0.00         87.94         0.00         0.00
     62.5       85.52            0.00            0.00         85.52         0.00         0.00
     48.8       82.60            0.00            0.00         82.60         0.00         0.00
     35.0       78.85            0.00            0.00         78.85         0.00         0.00
     21.2       73.53            0.00            0.00         73.53         0.00         0.00
      7.5       63.56            0.00            0.00         63.56         0.00         0.00


Harvested Random Seeds after Generation of the Random Numbers:

    625370864 Harvested seed # 1
   1223978853 Harvested seed # 2


Hub-Height Simulated Turbulence Statistical Summary:

   Type of Wind        Min (m/s)   Mean (m/s)    Max (m/s)  Sigma (m/s)       TI (%)
   ----------------    ---------   ----------    ---------  -----------       ------
   Longitudinal (u)        51.27        90.00       130.07        9.899       10.999
   Lateral (v)            -30.80         0.00        36.27        7.694        8.549
   Vertical (w)           -18.57        -0.00        19.34        4.595        5.106
   U component             51.27        90.00       130.07        9.899       10.999
   V component            -30.80         0.00        36.27        7.694        8.549
   W component            -18.57        -0.00        19.34        4.595        5.106
   Horizontal (U&V)        51.33        90.33       130.22        9.869       10.925
   Total                   51.37        90.45       130.23        9.858       10.899

                       Min Reynolds     Mean Reynolds    Max Reynolds    Correlation
   Product             Stress (m/s)^2   Stress (m/s)^2   Stress (m/s)^2  Coefficient
   ----------------    --------------   --------------   --------------  -----------
   u'w'                   -561.003            -0.317           407.349        -0.007
   u'v'                   -564.105             2.900           740.042         0.038
   v'w'                   -431.109            -0.486           292.566        -0.014


   Friction Velocity (Ustar)  =      0.563 m/s
   Maximum Instantaneous TKE  =    846.917 (m/s)^2
   Maximum Instantaneous CTKE =    375.335 (m/s)^2


Grid Point Variance Summary:

   Y-coord  -82.50  -68.75  -55.00  -41.25  -27.50  -13.75    0.00   13.75   27.50   41.25   55.00   68.75   82.50

   Height   Standard deviation at grid points for the u component:
   172.50    9.876   9.924   9.954  10.018  10.005   9.939  10.005   9.984   9.989  10.174  10.200  10.053   9.830
   158.75    9.840   9.873  10.039  10.037   9.963   9.973   9.992   9.948   9.937  10.070  10.155  10.024  10.000
   145.00    9.901   9.949  10.032   9.998  10.079  10.010   9.990   9.987   9.881  10.089  10.063   9.958   9.906
   131.25   10.016  10.087   9.973   9.899  10.048   9.945  10.012   9.936   9.872   9.794   9.945   9.935   9.971
   117.50    9.917   9.979   9.826   9.911   9.888   9.980   9.856   9.830   9.924   9.882   9.955   9.987  10.107
   103.75    9.962   9.948   9.836   9.723   9.849   9.860   9.819   9.835   9.967  10.031   9.905   9.935   9.945
    90.00    9.810   9.862   9.785   9.657   9.747   9.766   9.899   9.892   9.929   9.920   9.936   9.865   9.961
    76.25    9.836   9.797   9.616   9.641   9.457   9.673   9.875   9.875   9.805   9.743   9.834   9.781   9.779
    62.50    9.881   9.637   9.516   9.425   9.471   9.554   9.801   9.821   9.777   9.638   9.668   9.685   9.762
    48.75    9.805   9.551   9.486   9.469   9.506   9.630   9.755   9.780   9.761   9.646   9.747   9.616   9.627
    35.00    9.742   9.654   9.518   9.405   9.417   9.554   9.637   9.547   9.648   9.793   9.800   9.730   9.631
    21.25    9.702   9.679   9.550   9.441   9.425   9.538   9.570   9.601   9.691   9.698   9.846   9.737   9.651
     7.50    9.756   9.747   9.561   9.618   9.638   9.510   9.574   9.607   9.713   9.767   9.784   9.787   9.699

   Height   Standard deviation at grid points for the v component:
   172.50    7.694   7.694   7.694   7.694   7.694   7.694   7.694   7.694   7.694   7.694   7.694   7.694   7.694
   158.75    7.694   7.694   7.694   7.694   7.694   7.694   7.694   7.694   7.694   7.694   7.694   7.694   7.694
   145.00    7.694   7.694   7.694   7.694   7.694   7.694   7.694   7.694   7.694   7.694   7.694   7.694   7.694
   131.25    7.694   7.694   7.694   7.694   7.694   7.694   7.694   7.694   7.694   7.694   7.694   7.694   7.694
   117.50    7.694   7.694   7.694   7.694   7.694   7.694   7.694   7.694   7.694   7.694   7.694   7.694   7.694
   103.75    7.694   7.694   7.694   7.694   7.694   7.694   7.694   7.694   7.694   7.694   7.694   7.694   7.694
    90.00    7.694   7.694   7.694   7.694   7.694   7.694   7.694   7.694   7.694   7.694   7.694   7.694   7.694
    76.25    7.694   7.694   7.694   7.694   7.694   7.694   7.694   7.694   7.694   7.694   7.694   7.694   7.694
    62.50    7.694   7.694   7.694   7.694   7.694   7.694   7.694   7.694   7.694   7.694   7.694   7.694   7.694
    48.75    7.694   7.694   7.694   7.694   7.694   7.694   7.694   7.694   7.694   7.694   7.694   7.694   7.694
    35.00    7.694   7.694   7.694   7.694   7.694   7.694   7.694   7.694   7.694   7.694   7.694   7.694   7.694
    21.25    7.694   7.694   7.694   7.694   7.694   7.694   7.694   7.694   7.694   7.694   7.694   7.694   7.694
     7.50    7.694   7.694   7.694   7.694   7.694   7.694   7.694   7.694   7.694   7.694   7.694   7.694   7.694

   Height   Standard deviation at grid points for the w component:
   172.50    4.595   4.595   4.595   4.595   4.595   4.595   4.595   4.595   4.595   4.595   4.595   4.595   4.595
   158.75    4.595   4.595   4.595   4.595   4.595   4.595   4.595   4.595   4.595   4.595   4.595   4.595   4.595
   145.00    4.595   4.595   4.595   4.595   4.595   4.595   4.595   4.595   4.595   4.595   4.595   4.595   4.595
   131.25    4.595   4.595   4.595   4.595   4.595   4.595   4.595   4.595   4.595   4.595   4.595   4.595   4.595
   117.50    4.595   4.595   4.595   4.595   4.595   4.595   4.595   4.595   4.595   4.595   4.595   4.595   4.595
   103.75    4.595   4.595   4.595   4.595   4.595   4.595   4.595   4.595   4.595   4.595   4.595   4.595   4.595
    90.00    4.595   4.595   4.595   4.595   4.595   4.595   4.595   4.595   4.595   4.595   4.595   4.595   4.595
    76.25    4.595   4.595   4.595   4.595   4.595   4.595   4.595   4.595   4.595   4.595   4.595   4.595   4.595
    62.50    4.595   4.595   4.595   4.595   4.595   4.595   4.595   4.595   4.595   4.595   4.595   4.595   4.595
    48.75    4.595   4.595   4.595   4.595   4.595   4.595   4.595   4.595   4.595   4.595   4.595   4.595   4.595
    35.00    4.595   4.595   4.595   4.595   4.595   4.595   4.595   4.595   4.595   4.595   4.595   4.595   4.595
    21.25    4.595   4.595   4.595   4.595   4.595   4.595   4.595   4.595   4.595   4.595   4.595   4.595   4.595
     7.50    4.595   4.595   4.595   4.595   4.595   4.595   4.595   4.595   4.595   4.595   4.595   4.595   4.595

   Mean standard deviation across all grid points:
      u component:    9.813 m/s
      v component:    7.694 m/s
      w component:    4.595 m/s


U-component (X) statistics from the interpolated hub point:

   Mean =  90.0000 m/s
   TI   =  10.9987 %


Processing complete.  15.812 CPU seconds used.
