
This summary file was generated by TurbSim (v2.00.07a-bjj, 14-Jun-2016) on 23-Mar-2020 at 10:47:57.


Runtime Options:

        61  Random seed #1
        62  Random seed #2
         F  Output binary HH turbulence parameters?
         F  Output formatted turbulence parameters?
         F  Output AeroDyn HH files?
         T  Output AeroDyn FF files?
         F  Output BLADED FF files?
         F  Output tower data?
         F  Output formatted FF files?
         F  Output coherent turbulence time step file?
         T  Clockwise rotation when looking downwind?
 0 -  NONE  IEC turbulence models scaled to exact specified standard deviation


Turbine/Model Specifications:

        13  Vertical grid-point matrix dimension
        13  Horizontal grid-point matrix dimension
     0.050  Time step [seconds]
  3630.000  Analysis time [seconds]
  3630.000  Usable output time [seconds]
    90.000  Hub height [m]
   165.000  Grid height [m]
   165.000  Grid width [m]
     0.000  Vertical flow angle [degrees]
     0.000  Horizontal flow angle [degrees]


Meteorological Boundary Conditions:

    IECKAI  IEC Kaimal spectral model
         3  IEC standard: IEC 61400-3 Ed. 1: 2006
    11.000  Percent turbulence intensity, IEC 61400-3 Ed. 1: 2006
       NTM  IEC Normal Turbulence Model
       N/A  IEC Extreme Turbulence Model (ETM) "c" parameter [m/s]
       IEC  Wind profile type
    90.000  Reference height [m]
    95.000  Reference wind speed [m/s]
       N/A  Jet height [m]
     0.140  Power law exponent
     0.030  Surface roughness length [m]


Non-IEC Meteorological Boundary Conditions:

       N/A  Site latitude [degrees]
       N/A  Gradient Richardson number
       N/A  Friction or shear velocity [m/s]
       N/A  Mixing layer depth [m]
       N/A  Mean hub u'w' Reynolds stress
       N/A  Mean hub u'v' Reynolds stress
       N/A  Mean hub v'w' Reynolds stress


Spatial Coherence Models:

       IEC  u-component coherence model
      NONE  v-component coherence model
      NONE  w-component coherence model
(   12.000, 0.353E-03)  u-component coherence parameters
                   N/A  v-component coherence parameters
                   N/A  w-component coherence parameters
       N/A  Coherence exponent


You have requested that the following file(s) be generated:

   6_95.bts (AeroDyn/TurbSim full-field wind file)


Turbulence Simulation Scaling Parameter Summary:

   Turbulence model used                            =  IEC Kaimal
   Turbulence characteristic                        =  User-specified
   IEC standard                                     =  IEC 61400-3 Ed. 1: 2006
   Mean wind speed at hub height                    =   95.000 m/s
   Characteristic value of standard deviation       =   10.450 m/s
   Turbulence scale                                 =   42.000 m
   u-component integral scale                       =  340.200 m
   Coherency scale                                  =  340.200 m
   Characteristic value of hub turbulence intensity =   11.000%
   Gradient Richardson number                       =    0.000

   Wind profile type                                =  Power law on rotor disk, logarithmic elsewhere
   Power law exponent                               =    0.140
   Mean shear across rotor disk                     =    0.224 (m/s)/m
   Assumed rotor diameter                           =  165.000 m
   Surface roughness length                         =    0.030 m

   Nyquist frequency of turbulent wind field        =   10.000 Hz

   Number of time steps in the FFT                  =    72600
   Number of time steps output                      =    72600
   Number of points simulated                       =      169


Mean Flow Angles:

   Vertical   =   0.0 degrees
   Horizontal =   0.0 degrees

Mean Wind Speed Profile:

   Height    Wind Speed   Horizontal Angle  Vertical Angle  U-comp (X)   V-comp (Y)   W-comp (Z)
     (m)        (m/s)         (degrees)       (degrees)       (m/s)        (m/s)        (m/s)   
   ------    ----------   ----------------  --------------  ----------   ----------   ----------
    172.5      104.06            0.00            0.00        104.06         0.00         0.00
    158.8      102.86            0.00            0.00        102.86         0.00         0.00
    145.0      101.56            0.00            0.00        101.56         0.00         0.00
    131.2      100.15            0.00            0.00        100.15         0.00         0.00
    117.5       98.61            0.00            0.00         98.61         0.00         0.00
    103.8       96.91            0.00            0.00         96.91         0.00         0.00
     90.0       95.00            0.00            0.00         95.00         0.00         0.00
     76.2       92.82            0.00            0.00         92.82         0.00         0.00
     62.5       90.27            0.00            0.00         90.27         0.00         0.00
     48.8       87.19            0.00            0.00         87.19         0.00         0.00
     35.0       83.23            0.00            0.00         83.23         0.00         0.00
     21.2       77.62            0.00            0.00         77.62         0.00         0.00
      7.5       67.09            0.00            0.00         67.09         0.00         0.00


Harvested Random Seeds after Generation of the Random Numbers:

    625370864 Harvested seed # 1
   1223978853 Harvested seed # 2


Hub-Height Simulated Turbulence Statistical Summary:

   Type of Wind        Min (m/s)   Mean (m/s)    Max (m/s)  Sigma (m/s)       TI (%)
   ----------------    ---------   ----------    ---------  -----------       ------
   Longitudinal (u)        53.91        95.00       137.30       10.439       10.988
   Lateral (v)            -32.42         0.00        38.10        8.113        8.540
   Vertical (w)           -19.56        -0.00        20.39        4.837        5.091
   U component             53.91        95.00       137.30       10.439       10.988
   V component            -32.42         0.00        38.10        8.113        8.540
   W component            -19.56        -0.00        20.39        4.837        5.091
   Horizontal (U&V)        53.97        95.35       137.46       10.407       10.915
   Total                   54.02        95.47       137.46       10.396       10.889

                       Min Reynolds     Mean Reynolds    Max Reynolds    Correlation
   Product             Stress (m/s)^2   Stress (m/s)^2   Stress (m/s)^2  Coefficient
   ----------------    --------------   --------------   --------------  -----------
   u'w'                   -621.226            -0.350           457.592        -0.007
   u'v'                   -626.232             3.150           823.165         0.037
   v'w'                   -474.942            -0.531           330.398        -0.014


   Friction Velocity (Ustar)  =      0.592 m/s
   Maximum Instantaneous TKE  =    941.004 (m/s)^2
   Maximum Instantaneous CTKE =    417.501 (m/s)^2


Grid Point Variance Summary:

   Y-coord  -82.50  -68.75  -55.00  -41.25  -27.50  -13.75    0.00   13.75   27.50   41.25   55.00   68.75   82.50

   Height   Standard deviation at grid points for the u component:
   172.50   10.417  10.466  10.492  10.556  10.542  10.473  10.542  10.519  10.525  10.715  10.737  10.592  10.363
   158.75   10.378  10.413  10.580  10.574  10.502  10.512  10.533  10.488  10.473  10.609  10.697  10.563  10.537
   145.00   10.442  10.489  10.576  10.537  10.620  10.551  10.533  10.529  10.416  10.630  10.606  10.501  10.447
   131.25   10.557  10.630  10.513  10.439  10.594  10.482  10.554  10.479  10.413  10.330  10.489  10.482  10.515
   117.50   10.457  10.518  10.363  10.451  10.429  10.522  10.395  10.371  10.464  10.421  10.496  10.532  10.653
   103.75   10.508  10.492  10.375  10.261  10.390  10.401  10.356  10.371  10.512  10.575  10.445  10.478  10.486
    90.00   10.352  10.406  10.328  10.196  10.285  10.303  10.439  10.431  10.468  10.459  10.475  10.406  10.507
    76.25   10.379  10.340  10.153  10.177   9.984  10.205  10.413  10.414  10.340  10.278  10.372  10.322  10.318
    62.50   10.425  10.173  10.050   9.956  10.002  10.084  10.337  10.356  10.309  10.168  10.202  10.221  10.300
    48.75   10.345  10.085  10.018  10.000  10.039  10.165  10.293  10.318  10.298  10.178  10.283  10.152  10.160
    35.00   10.281  10.188  10.052   9.931   9.944  10.085  10.174  10.082  10.182  10.332  10.340  10.268  10.163
    21.25   10.238  10.216  10.084   9.970   9.955  10.072  10.104  10.134  10.231  10.238  10.385  10.274  10.181
     7.50   10.293  10.285  10.098  10.157  10.177  10.043  10.110  10.143  10.253  10.307  10.322  10.323  10.233

   Height   Standard deviation at grid points for the v component:
   172.50    8.113   8.113   8.113   8.113   8.113   8.113   8.113   8.113   8.113   8.113   8.113   8.113   8.113
   158.75    8.113   8.113   8.113   8.113   8.113   8.113   8.113   8.113   8.113   8.113   8.113   8.113   8.113
   145.00    8.113   8.113   8.113   8.113   8.113   8.113   8.113   8.113   8.113   8.113   8.113   8.113   8.113
   131.25    8.113   8.113   8.113   8.113   8.113   8.113   8.113   8.113   8.113   8.113   8.113   8.113   8.113
   117.50    8.113   8.113   8.113   8.113   8.113   8.113   8.113   8.113   8.113   8.113   8.113   8.113   8.113
   103.75    8.113   8.113   8.113   8.113   8.113   8.113   8.113   8.113   8.113   8.113   8.113   8.113   8.113
    90.00    8.113   8.113   8.113   8.113   8.113   8.113   8.113   8.113   8.113   8.113   8.113   8.113   8.113
    76.25    8.113   8.113   8.113   8.113   8.113   8.113   8.113   8.113   8.113   8.113   8.113   8.113   8.113
    62.50    8.113   8.113   8.113   8.113   8.113   8.113   8.113   8.113   8.113   8.113   8.113   8.113   8.113
    48.75    8.113   8.113   8.113   8.113   8.113   8.113   8.113   8.113   8.113   8.113   8.113   8.113   8.113
    35.00    8.113   8.113   8.113   8.113   8.113   8.113   8.113   8.113   8.113   8.113   8.113   8.113   8.113
    21.25    8.113   8.113   8.113   8.113   8.113   8.113   8.113   8.113   8.113   8.113   8.113   8.113   8.113
     7.50    8.113   8.113   8.113   8.113   8.113   8.113   8.113   8.113   8.113   8.113   8.113   8.113   8.113

   Height   Standard deviation at grid points for the w component:
   172.50    4.837   4.837   4.837   4.837   4.837   4.837   4.837   4.837   4.837   4.837   4.837   4.837   4.837
   158.75    4.837   4.837   4.837   4.837   4.837   4.837   4.837   4.837   4.837   4.837   4.837   4.837   4.837
   145.00    4.837   4.837   4.837   4.837   4.837   4.837   4.837   4.837   4.837   4.837   4.837   4.837   4.837
   131.25    4.837   4.837   4.837   4.837   4.837   4.837   4.837   4.837   4.837   4.837   4.837   4.837   4.837
   117.50    4.837   4.837   4.837   4.837   4.837   4.837   4.837   4.837   4.837   4.837   4.837   4.837   4.837
   103.75    4.837   4.837   4.837   4.837   4.837   4.837   4.837   4.837   4.837   4.837   4.837   4.837   4.837
    90.00    4.837   4.837   4.837   4.837   4.837   4.837   4.837   4.837   4.837   4.837   4.837   4.837   4.837
    76.25    4.837   4.837   4.837   4.837   4.837   4.837   4.837   4.837   4.837   4.837   4.837   4.837   4.837
    62.50    4.837   4.837   4.837   4.837   4.837   4.837   4.837   4.837   4.837   4.837   4.837   4.837   4.837
    48.75    4.837   4.837   4.837   4.837   4.837   4.837   4.837   4.837   4.837   4.837   4.837   4.837   4.837
    35.00    4.837   4.837   4.837   4.837   4.837   4.837   4.837   4.837   4.837   4.837   4.837   4.837   4.837
    21.25    4.837   4.837   4.837   4.837   4.837   4.837   4.837   4.837   4.837   4.837   4.837   4.837   4.837
     7.50    4.837   4.837   4.837   4.837   4.837   4.837   4.837   4.837   4.837   4.837   4.837   4.837   4.837

   Mean standard deviation across all grid points:
      u component:   10.351 m/s
      v component:    8.113 m/s
      w component:    4.837 m/s


U-component (X) statistics from the interpolated hub point:

   Mean =  95.0000 m/s
   TI   =  10.9879 %


Processing complete.  16.203 CPU seconds used.
