
This summary file was generated by TurbSim (v2.00.07a-bjj, 14-Jun-2016) on 23-Mar-2020 at 10:29:37.


Runtime Options:

        51  Random seed #1
        52  Random seed #2
         F  Output binary HH turbulence parameters?
         F  Output formatted turbulence parameters?
         F  Output AeroDyn HH files?
         T  Output AeroDyn FF files?
         F  Output BLADED FF files?
         F  Output tower data?
         F  Output formatted FF files?
         F  Output coherent turbulence time step file?
         T  Clockwise rotation when looking downwind?
 0 -  NONE  IEC turbulence models scaled to exact specified standard deviation


Turbine/Model Specifications:

        13  Vertical grid-point matrix dimension
        13  Horizontal grid-point matrix dimension
     0.050  Time step [seconds]
  3630.000  Analysis time [seconds]
  3630.000  Usable output time [seconds]
    90.000  Hub height [m]
   165.000  Grid height [m]
   165.000  Grid width [m]
     0.000  Vertical flow angle [degrees]
     0.000  Horizontal flow angle [degrees]


Meteorological Boundary Conditions:

    IECKAI  IEC Kaimal spectral model
         3  IEC standard: IEC 61400-3 Ed. 1: 2006
    11.000  Percent turbulence intensity, IEC 61400-3 Ed. 1: 2006
       NTM  IEC Normal Turbulence Model
       N/A  IEC Extreme Turbulence Model (ETM) "c" parameter [m/s]
       IEC  Wind profile type
    90.000  Reference height [m]
    35.000  Reference wind speed [m/s]
       N/A  Jet height [m]
     0.140  Power law exponent
     0.030  Surface roughness length [m]


Non-IEC Meteorological Boundary Conditions:

       N/A  Site latitude [degrees]
       N/A  Gradient Richardson number
       N/A  Friction or shear velocity [m/s]
       N/A  Mixing layer depth [m]
       N/A  Mean hub u'w' Reynolds stress
       N/A  Mean hub u'v' Reynolds stress
       N/A  Mean hub v'w' Reynolds stress


Spatial Coherence Models:

       IEC  u-component coherence model
      NONE  v-component coherence model
      NONE  w-component coherence model
(   12.000, 0.353E-03)  u-component coherence parameters
                   N/A  v-component coherence parameters
                   N/A  w-component coherence parameters
       N/A  Coherence exponent


You have requested that the following file(s) be generated:

   5_35.bts (AeroDyn/TurbSim full-field wind file)


Turbulence Simulation Scaling Parameter Summary:

   Turbulence model used                            =  IEC Kaimal
   Turbulence characteristic                        =  User-specified
   IEC standard                                     =  IEC 61400-3 Ed. 1: 2006
   Mean wind speed at hub height                    =   35.000 m/s
   Characteristic value of standard deviation       =    3.850 m/s
   Turbulence scale                                 =   42.000 m
   u-component integral scale                       =  340.200 m
   Coherency scale                                  =  340.200 m
   Characteristic value of hub turbulence intensity =   11.000%
   Gradient Richardson number                       =    0.000

   Wind profile type                                =  Power law on rotor disk, logarithmic elsewhere
   Power law exponent                               =    0.140
   Mean shear across rotor disk                     =    0.083 (m/s)/m
   Assumed rotor diameter                           =  165.000 m
   Surface roughness length                         =    0.030 m

   Nyquist frequency of turbulent wind field        =   10.000 Hz

   Number of time steps in the FFT                  =    72600
   Number of time steps output                      =    72600
   Number of points simulated                       =      169


Mean Flow Angles:

   Vertical   =   0.0 degrees
   Horizontal =   0.0 degrees

Mean Wind Speed Profile:

   Height    Wind Speed   Horizontal Angle  Vertical Angle  U-comp (X)   V-comp (Y)   W-comp (Z)
     (m)        (m/s)         (degrees)       (degrees)       (m/s)        (m/s)        (m/s)   
   ------    ----------   ----------------  --------------  ----------   ----------   ----------
    172.5       38.34            0.00            0.00         38.34         0.00         0.00
    158.8       37.89            0.00            0.00         37.89         0.00         0.00
    145.0       37.42            0.00            0.00         37.42         0.00         0.00
    131.2       36.90            0.00            0.00         36.90         0.00         0.00
    117.5       36.33            0.00            0.00         36.33         0.00         0.00
    103.8       35.70            0.00            0.00         35.70         0.00         0.00
     90.0       35.00            0.00            0.00         35.00         0.00         0.00
     76.2       34.20            0.00            0.00         34.20         0.00         0.00
     62.5       33.26            0.00            0.00         33.26         0.00         0.00
     48.8       32.12            0.00            0.00         32.12         0.00         0.00
     35.0       30.67            0.00            0.00         30.67         0.00         0.00
     21.2       28.60            0.00            0.00         28.60         0.00         0.00
      7.5       24.72            0.00            0.00         24.72         0.00         0.00


Harvested Random Seeds after Generation of the Random Numbers:

   1367762616 Harvested seed # 1
   1095836567 Harvested seed # 2


Hub-Height Simulated Turbulence Statistical Summary:

   Type of Wind        Min (m/s)   Mean (m/s)    Max (m/s)  Sigma (m/s)       TI (%)
   ----------------    ---------   ----------    ---------  -----------       ------
   Longitudinal (u)        17.75        35.00        50.63        4.000       11.430
   Lateral (v)            -13.14        -0.00        12.71        3.031        8.660
   Vertical (w)            -7.37         0.00         8.36        1.851        5.288
   U component             17.75        35.00        50.63        4.000       11.430
   V component            -13.14        -0.00        12.71        3.031        8.660
   W component             -7.37         0.00         8.36        1.851        5.288
   Horizontal (U&V)        17.96        35.13        50.63        3.992       11.363
   Total                   18.13        35.18        50.67        3.987       11.332

                       Min Reynolds     Mean Reynolds    Max Reynolds    Correlation
   Product             Stress (m/s)^2   Stress (m/s)^2   Stress (m/s)^2  Coefficient
   ----------------    --------------   --------------   --------------  -----------
   u'w'                    -77.766             0.078            73.290         0.011
   u'v'                    -96.098             0.009            93.626         0.001
   v'w'                    -57.858             0.011            49.874         0.002


   Friction Velocity (Ustar)  =      0.280 m/s
   Maximum Instantaneous TKE  =    155.775 (m/s)^2
   Maximum Instantaneous CTKE =     48.441 (m/s)^2


Grid Point Variance Summary:

   Y-coord  -82.50  -68.75  -55.00  -41.25  -27.50  -13.75    0.00   13.75   27.50   41.25   55.00   68.75   82.50

   Height   Standard deviation at grid points for the u component:
   172.50    3.756   3.839   3.793   3.716   3.804   3.836   3.908   3.895   3.873   3.900   3.862   3.831   3.897
   158.75    3.761   3.739   3.865   3.798   3.889   3.930   3.833   3.788   3.816   3.843   3.827   3.900   3.815
   145.00    3.736   3.765   3.844   3.893   3.821   3.779   3.833   3.841   3.863   3.882   3.858   3.927   3.912
   131.25    3.730   3.822   3.853   3.892   3.842   3.884   3.927   3.911   3.888   3.914   3.888   3.916   3.852
   117.50    3.739   3.759   3.796   3.868   3.897   3.963   3.859   3.916   3.928   3.915   3.897   3.876   3.960
   103.75    3.820   3.792   3.806   3.882   3.908   4.007   3.944   3.971   3.955   3.944   3.914   3.958   3.960
    90.00    3.857   3.828   3.973   3.908   3.982   4.062   4.000   4.026   4.072   3.984   3.944   3.980   4.078
    76.25    3.864   3.888   3.913   3.862   3.965   4.027   4.174   4.173   4.073   4.078   4.095   4.027   4.000
    62.50    3.936   3.897   3.888   3.970   3.867   4.012   4.092   4.134   4.158   4.098   4.058   3.979   4.051
    48.75    3.857   3.883   3.920   3.973   3.937   4.000   4.137   4.130   4.139   4.110   4.083   4.089   4.045
    35.00    3.843   3.777   3.846   3.912   3.967   4.047   4.077   4.032   4.079   3.984   4.070   4.150   3.966
    21.25    3.742   3.706   3.827   3.877   3.986   3.980   3.960   3.893   3.997   4.020   4.035   4.035   4.019
     7.50    3.812   3.742   3.793   3.857   3.880   3.920   3.896   3.870   3.858   3.960   3.989   4.024   3.987

   Height   Standard deviation at grid points for the v component:
   172.50    3.031   3.031   3.031   3.031   3.031   3.031   3.031   3.031   3.031   3.031   3.031   3.031   3.031
   158.75    3.031   3.031   3.031   3.031   3.031   3.031   3.031   3.031   3.031   3.031   3.031   3.031   3.031
   145.00    3.031   3.031   3.031   3.031   3.031   3.031   3.031   3.031   3.031   3.031   3.031   3.031   3.031
   131.25    3.031   3.031   3.031   3.031   3.031   3.031   3.031   3.031   3.031   3.031   3.031   3.031   3.031
   117.50    3.031   3.031   3.031   3.031   3.031   3.031   3.031   3.031   3.031   3.031   3.031   3.031   3.031
   103.75    3.031   3.031   3.031   3.031   3.031   3.031   3.031   3.031   3.031   3.031   3.031   3.031   3.031
    90.00    3.031   3.031   3.031   3.031   3.031   3.031   3.031   3.031   3.031   3.031   3.031   3.031   3.031
    76.25    3.031   3.031   3.031   3.031   3.031   3.031   3.031   3.031   3.031   3.031   3.031   3.031   3.031
    62.50    3.031   3.031   3.031   3.031   3.031   3.031   3.031   3.031   3.031   3.031   3.031   3.031   3.031
    48.75    3.031   3.031   3.031   3.031   3.031   3.031   3.031   3.031   3.031   3.031   3.031   3.031   3.031
    35.00    3.031   3.031   3.031   3.031   3.031   3.031   3.031   3.031   3.031   3.031   3.031   3.031   3.031
    21.25    3.031   3.031   3.031   3.031   3.031   3.031   3.031   3.031   3.031   3.031   3.031   3.031   3.031
     7.50    3.031   3.031   3.031   3.031   3.031   3.031   3.031   3.031   3.031   3.031   3.031   3.031   3.031

   Height   Standard deviation at grid points for the w component:
   172.50    1.851   1.851   1.851   1.851   1.851   1.851   1.851   1.851   1.851   1.851   1.851   1.851   1.851
   158.75    1.851   1.851   1.851   1.851   1.851   1.851   1.851   1.851   1.851   1.851   1.851   1.851   1.851
   145.00    1.851   1.851   1.851   1.851   1.851   1.851   1.851   1.851   1.851   1.851   1.851   1.851   1.851
   131.25    1.851   1.851   1.851   1.851   1.851   1.851   1.851   1.851   1.851   1.851   1.851   1.851   1.851
   117.50    1.851   1.851   1.851   1.851   1.851   1.851   1.851   1.851   1.851   1.851   1.851   1.851   1.851
   103.75    1.851   1.851   1.851   1.851   1.851   1.851   1.851   1.851   1.851   1.851   1.851   1.851   1.851
    90.00    1.851   1.851   1.851   1.851   1.851   1.851   1.851   1.851   1.851   1.851   1.851   1.851   1.851
    76.25    1.851   1.851   1.851   1.851   1.851   1.851   1.851   1.851   1.851   1.851   1.851   1.851   1.851
    62.50    1.851   1.851   1.851   1.851   1.851   1.851   1.851   1.851   1.851   1.851   1.851   1.851   1.851
    48.75    1.851   1.851   1.851   1.851   1.851   1.851   1.851   1.851   1.851   1.851   1.851   1.851   1.851
    35.00    1.851   1.851   1.851   1.851   1.851   1.851   1.851   1.851   1.851   1.851   1.851   1.851   1.851
    21.25    1.851   1.851   1.851   1.851   1.851   1.851   1.851   1.851   1.851   1.851   1.851   1.851   1.851
     7.50    1.851   1.851   1.851   1.851   1.851   1.851   1.851   1.851   1.851   1.851   1.851   1.851   1.851

   Mean standard deviation across all grid points:
      u component:    3.923 m/s
      v component:    3.031 m/s
      w component:    1.851 m/s


U-component (X) statistics from the interpolated hub point:

   Mean =  35.0000 m/s
   TI   =  11.4297 %


Processing complete.  16.391 CPU seconds used.
