
This summary file was generated by TurbSim (v2.00.07a-bjj, 14-Jun-2016) on 23-Mar-2020 at 10:32:19.


Runtime Options:

        51  Random seed #1
        52  Random seed #2
         F  Output binary HH turbulence parameters?
         F  Output formatted turbulence parameters?
         F  Output AeroDyn HH files?
         T  Output AeroDyn FF files?
         F  Output BLADED FF files?
         F  Output tower data?
         F  Output formatted FF files?
         F  Output coherent turbulence time step file?
         T  Clockwise rotation when looking downwind?
 0 -  NONE  IEC turbulence models scaled to exact specified standard deviation


Turbine/Model Specifications:

        13  Vertical grid-point matrix dimension
        13  Horizontal grid-point matrix dimension
     0.050  Time step [seconds]
  3630.000  Analysis time [seconds]
  3630.000  Usable output time [seconds]
    90.000  Hub height [m]
   165.000  Grid height [m]
   165.000  Grid width [m]
     0.000  Vertical flow angle [degrees]
     0.000  Horizontal flow angle [degrees]


Meteorological Boundary Conditions:

    IECKAI  IEC Kaimal spectral model
         3  IEC standard: IEC 61400-3 Ed. 1: 2006
    11.000  Percent turbulence intensity, IEC 61400-3 Ed. 1: 2006
       NTM  IEC Normal Turbulence Model
       N/A  IEC Extreme Turbulence Model (ETM) "c" parameter [m/s]
       IEC  Wind profile type
    90.000  Reference height [m]
    50.000  Reference wind speed [m/s]
       N/A  Jet height [m]
     0.140  Power law exponent
     0.030  Surface roughness length [m]


Non-IEC Meteorological Boundary Conditions:

       N/A  Site latitude [degrees]
       N/A  Gradient Richardson number
       N/A  Friction or shear velocity [m/s]
       N/A  Mixing layer depth [m]
       N/A  Mean hub u'w' Reynolds stress
       N/A  Mean hub u'v' Reynolds stress
       N/A  Mean hub v'w' Reynolds stress


Spatial Coherence Models:

       IEC  u-component coherence model
      NONE  v-component coherence model
      NONE  w-component coherence model
(   12.000, 0.353E-03)  u-component coherence parameters
                   N/A  v-component coherence parameters
                   N/A  w-component coherence parameters
       N/A  Coherence exponent


You have requested that the following file(s) be generated:

   5_50.bts (AeroDyn/TurbSim full-field wind file)


Turbulence Simulation Scaling Parameter Summary:

   Turbulence model used                            =  IEC Kaimal
   Turbulence characteristic                        =  User-specified
   IEC standard                                     =  IEC 61400-3 Ed. 1: 2006
   Mean wind speed at hub height                    =   50.000 m/s
   Characteristic value of standard deviation       =    5.500 m/s
   Turbulence scale                                 =   42.000 m
   u-component integral scale                       =  340.200 m
   Coherency scale                                  =  340.200 m
   Characteristic value of hub turbulence intensity =   11.000%
   Gradient Richardson number                       =    0.000

   Wind profile type                                =  Power law on rotor disk, logarithmic elsewhere
   Power law exponent                               =    0.140
   Mean shear across rotor disk                     =    0.118 (m/s)/m
   Assumed rotor diameter                           =  165.000 m
   Surface roughness length                         =    0.030 m

   Nyquist frequency of turbulent wind field        =   10.000 Hz

   Number of time steps in the FFT                  =    72600
   Number of time steps output                      =    72600
   Number of points simulated                       =      169


Mean Flow Angles:

   Vertical   =   0.0 degrees
   Horizontal =   0.0 degrees

Mean Wind Speed Profile:

   Height    Wind Speed   Horizontal Angle  Vertical Angle  U-comp (X)   V-comp (Y)   W-comp (Z)
     (m)        (m/s)         (degrees)       (degrees)       (m/s)        (m/s)        (m/s)   
   ------    ----------   ----------------  --------------  ----------   ----------   ----------
    172.5       54.77            0.00            0.00         54.77         0.00         0.00
    158.8       54.13            0.00            0.00         54.13         0.00         0.00
    145.0       53.45            0.00            0.00         53.45         0.00         0.00
    131.2       52.71            0.00            0.00         52.71         0.00         0.00
    117.5       51.90            0.00            0.00         51.90         0.00         0.00
    103.8       51.01            0.00            0.00         51.01         0.00         0.00
     90.0       50.00            0.00            0.00         50.00         0.00         0.00
     76.2       48.85            0.00            0.00         48.85         0.00         0.00
     62.5       47.51            0.00            0.00         47.51         0.00         0.00
     48.8       45.89            0.00            0.00         45.89         0.00         0.00
     35.0       43.81            0.00            0.00         43.81         0.00         0.00
     21.2       40.85            0.00            0.00         40.85         0.00         0.00
      7.5       35.31            0.00            0.00         35.31         0.00         0.00


Harvested Random Seeds after Generation of the Random Numbers:

   1367762616 Harvested seed # 1
   1095836567 Harvested seed # 2


Hub-Height Simulated Turbulence Statistical Summary:

   Type of Wind        Min (m/s)   Mean (m/s)    Max (m/s)  Sigma (m/s)       TI (%)
   ----------------    ---------   ----------    ---------  -----------       ------
   Longitudinal (u)        24.55        50.00        73.63        5.698       11.395
   Lateral (v)            -18.35        -0.00        18.17        4.314        8.627
   Vertical (w)           -10.53        -0.00        11.65        2.616        5.232
   U component             24.55        50.00        73.63        5.698       11.395
   V component            -18.35        -0.00        18.17        4.314        8.627
   W component            -10.53        -0.00        11.65        2.616        5.232
   Horizontal (U&V)        24.81        50.19        73.64        5.686       11.329
   Total                   25.01        50.26        73.69        5.678       11.299

                       Min Reynolds     Mean Reynolds    Max Reynolds    Correlation
   Product             Stress (m/s)^2   Stress (m/s)^2   Stress (m/s)^2  Coefficient
   ----------------    --------------   --------------   --------------  -----------
   u'w'                   -160.350             0.172           158.762         0.012
   u'v'                   -190.812            -0.018           200.258        -0.001
   v'w'                   -115.431             0.011            99.048         0.001


   Friction Velocity (Ustar)  =      0.414 m/s
   Maximum Instantaneous TKE  =    335.229 (m/s)^2
   Maximum Instantaneous CTKE =    100.256 (m/s)^2


Grid Point Variance Summary:

   Y-coord  -82.50  -68.75  -55.00  -41.25  -27.50  -13.75    0.00   13.75   27.50   41.25   55.00   68.75   82.50

   Height   Standard deviation at grid points for the u component:
   172.50    5.404   5.510   5.455   5.357   5.484   5.526   5.605   5.574   5.516   5.551   5.500   5.467   5.543
   158.75    5.393   5.381   5.534   5.455   5.572   5.636   5.511   5.445   5.452   5.486   5.469   5.553   5.449
   145.00    5.375   5.410   5.508   5.577   5.496   5.458   5.527   5.511   5.527   5.543   5.505   5.575   5.565
   131.25    5.386   5.486   5.544   5.589   5.546   5.608   5.643   5.597   5.548   5.573   5.552   5.574   5.488
   117.50    5.405   5.433   5.490   5.576   5.604   5.688   5.550   5.598   5.608   5.591   5.570   5.531   5.614
   103.75    5.495   5.450   5.477   5.580   5.603   5.732   5.640   5.662   5.642   5.607   5.596   5.646   5.647
    90.00    5.506   5.463   5.647   5.585   5.688   5.777   5.698   5.716   5.790   5.672   5.610   5.669   5.778
    76.25    5.510   5.550   5.592   5.520   5.651   5.708   5.880   5.876   5.768   5.772   5.781   5.708   5.688
    62.50    5.600   5.562   5.545   5.636   5.506   5.670   5.763   5.820   5.851   5.786   5.735   5.640   5.750
    48.75    5.492   5.533   5.566   5.628   5.571   5.653   5.820   5.826   5.841   5.796   5.749   5.761   5.722
    35.00    5.480   5.392   5.458   5.545   5.607   5.716   5.761   5.720   5.764   5.656   5.747   5.833   5.632
    21.25    5.359   5.307   5.442   5.510   5.637   5.639   5.618   5.543   5.674   5.692   5.700   5.690   5.665
     7.50    5.440   5.351   5.408   5.486   5.529   5.574   5.545   5.517   5.485   5.617   5.643   5.682   5.642

   Height   Standard deviation at grid points for the v component:
   172.50    4.314   4.314   4.314   4.314   4.314   4.314   4.314   4.314   4.314   4.314   4.314   4.314   4.314
   158.75    4.314   4.314   4.314   4.314   4.314   4.314   4.314   4.314   4.314   4.314   4.314   4.314   4.314
   145.00    4.314   4.314   4.314   4.314   4.314   4.314   4.314   4.314   4.314   4.314   4.314   4.314   4.314
   131.25    4.314   4.314   4.314   4.314   4.314   4.314   4.314   4.314   4.314   4.314   4.314   4.314   4.314
   117.50    4.314   4.314   4.314   4.314   4.314   4.314   4.314   4.314   4.314   4.314   4.314   4.314   4.314
   103.75    4.314   4.314   4.314   4.314   4.314   4.314   4.314   4.314   4.314   4.314   4.314   4.314   4.314
    90.00    4.314   4.314   4.314   4.314   4.314   4.314   4.314   4.314   4.314   4.314   4.314   4.314   4.314
    76.25    4.314   4.314   4.314   4.314   4.314   4.314   4.314   4.314   4.314   4.314   4.314   4.314   4.314
    62.50    4.314   4.314   4.314   4.314   4.314   4.314   4.314   4.314   4.314   4.314   4.314   4.314   4.314
    48.75    4.314   4.314   4.314   4.314   4.314   4.314   4.314   4.314   4.314   4.314   4.314   4.314   4.314
    35.00    4.314   4.314   4.314   4.314   4.314   4.314   4.314   4.314   4.314   4.314   4.314   4.314   4.314
    21.25    4.314   4.314   4.314   4.314   4.314   4.314   4.314   4.314   4.314   4.314   4.314   4.314   4.314
     7.50    4.314   4.314   4.314   4.314   4.314   4.314   4.314   4.314   4.314   4.314   4.314   4.314   4.314

   Height   Standard deviation at grid points for the w component:
   172.50    2.616   2.616   2.616   2.616   2.616   2.616   2.616   2.616   2.616   2.616   2.616   2.616   2.616
   158.75    2.616   2.616   2.616   2.616   2.616   2.616   2.616   2.616   2.616   2.616   2.616   2.616   2.616
   145.00    2.616   2.616   2.616   2.616   2.616   2.616   2.616   2.616   2.616   2.616   2.616   2.616   2.616
   131.25    2.616   2.616   2.616   2.616   2.616   2.616   2.616   2.616   2.616   2.616   2.616   2.616   2.616
   117.50    2.616   2.616   2.616   2.616   2.616   2.616   2.616   2.616   2.616   2.616   2.616   2.616   2.616
   103.75    2.616   2.616   2.616   2.616   2.616   2.616   2.616   2.616   2.616   2.616   2.616   2.616   2.616
    90.00    2.616   2.616   2.616   2.616   2.616   2.616   2.616   2.616   2.616   2.616   2.616   2.616   2.616
    76.25    2.616   2.616   2.616   2.616   2.616   2.616   2.616   2.616   2.616   2.616   2.616   2.616   2.616
    62.50    2.616   2.616   2.616   2.616   2.616   2.616   2.616   2.616   2.616   2.616   2.616   2.616   2.616
    48.75    2.616   2.616   2.616   2.616   2.616   2.616   2.616   2.616   2.616   2.616   2.616   2.616   2.616
    35.00    2.616   2.616   2.616   2.616   2.616   2.616   2.616   2.616   2.616   2.616   2.616   2.616   2.616
    21.25    2.616   2.616   2.616   2.616   2.616   2.616   2.616   2.616   2.616   2.616   2.616   2.616   2.616
     7.50    2.616   2.616   2.616   2.616   2.616   2.616   2.616   2.616   2.616   2.616   2.616   2.616   2.616

   Mean standard deviation across all grid points:
      u component:    5.590 m/s
      v component:    4.314 m/s
      w component:    2.616 m/s


U-component (X) statistics from the interpolated hub point:

   Mean =  50.0000 m/s
   TI   =  11.3950 %


Processing complete.  16.297 CPU seconds used.
