
This summary file was generated by TurbSim (v2.00.07a-bjj, 14-Jun-2016) on 23-Mar-2020 at 10:32:41.


Runtime Options:

        51  Random seed #1
        52  Random seed #2
         F  Output binary HH turbulence parameters?
         F  Output formatted turbulence parameters?
         F  Output AeroDyn HH files?
         T  Output AeroDyn FF files?
         F  Output BLADED FF files?
         F  Output tower data?
         F  Output formatted FF files?
         F  Output coherent turbulence time step file?
         T  Clockwise rotation when looking downwind?
 0 -  NONE  IEC turbulence models scaled to exact specified standard deviation


Turbine/Model Specifications:

        13  Vertical grid-point matrix dimension
        13  Horizontal grid-point matrix dimension
     0.050  Time step [seconds]
  3630.000  Analysis time [seconds]
  3630.000  Usable output time [seconds]
    90.000  Hub height [m]
   165.000  Grid height [m]
   165.000  Grid width [m]
     0.000  Vertical flow angle [degrees]
     0.000  Horizontal flow angle [degrees]


Meteorological Boundary Conditions:

    IECKAI  IEC Kaimal spectral model
         3  IEC standard: IEC 61400-3 Ed. 1: 2006
    11.000  Percent turbulence intensity, IEC 61400-3 Ed. 1: 2006
       NTM  IEC Normal Turbulence Model
       N/A  IEC Extreme Turbulence Model (ETM) "c" parameter [m/s]
       IEC  Wind profile type
    90.000  Reference height [m]
    55.000  Reference wind speed [m/s]
       N/A  Jet height [m]
     0.140  Power law exponent
     0.030  Surface roughness length [m]


Non-IEC Meteorological Boundary Conditions:

       N/A  Site latitude [degrees]
       N/A  Gradient Richardson number
       N/A  Friction or shear velocity [m/s]
       N/A  Mixing layer depth [m]
       N/A  Mean hub u'w' Reynolds stress
       N/A  Mean hub u'v' Reynolds stress
       N/A  Mean hub v'w' Reynolds stress


Spatial Coherence Models:

       IEC  u-component coherence model
      NONE  v-component coherence model
      NONE  w-component coherence model
(   12.000, 0.353E-03)  u-component coherence parameters
                   N/A  v-component coherence parameters
                   N/A  w-component coherence parameters
       N/A  Coherence exponent


You have requested that the following file(s) be generated:

   5_55.bts (AeroDyn/TurbSim full-field wind file)


Turbulence Simulation Scaling Parameter Summary:

   Turbulence model used                            =  IEC Kaimal
   Turbulence characteristic                        =  User-specified
   IEC standard                                     =  IEC 61400-3 Ed. 1: 2006
   Mean wind speed at hub height                    =   55.000 m/s
   Characteristic value of standard deviation       =    6.050 m/s
   Turbulence scale                                 =   42.000 m
   u-component integral scale                       =  340.200 m
   Coherency scale                                  =  340.200 m
   Characteristic value of hub turbulence intensity =   11.000%
   Gradient Richardson number                       =    0.000

   Wind profile type                                =  Power law on rotor disk, logarithmic elsewhere
   Power law exponent                               =    0.140
   Mean shear across rotor disk                     =    0.130 (m/s)/m
   Assumed rotor diameter                           =  165.000 m
   Surface roughness length                         =    0.030 m

   Nyquist frequency of turbulent wind field        =   10.000 Hz

   Number of time steps in the FFT                  =    72600
   Number of time steps output                      =    72600
   Number of points simulated                       =      169


Mean Flow Angles:

   Vertical   =   0.0 degrees
   Horizontal =   0.0 degrees

Mean Wind Speed Profile:

   Height    Wind Speed   Horizontal Angle  Vertical Angle  U-comp (X)   V-comp (Y)   W-comp (Z)
     (m)        (m/s)         (degrees)       (degrees)       (m/s)        (m/s)        (m/s)   
   ------    ----------   ----------------  --------------  ----------   ----------   ----------
    172.5       60.24            0.00            0.00         60.24         0.00         0.00
    158.8       59.55            0.00            0.00         59.55         0.00         0.00
    145.0       58.80            0.00            0.00         58.80         0.00         0.00
    131.2       57.98            0.00            0.00         57.98         0.00         0.00
    117.5       57.09            0.00            0.00         57.09         0.00         0.00
    103.8       56.11            0.00            0.00         56.11         0.00         0.00
     90.0       55.00            0.00            0.00         55.00         0.00         0.00
     76.2       53.74            0.00            0.00         53.74         0.00         0.00
     62.5       52.26            0.00            0.00         52.26         0.00         0.00
     48.8       50.48            0.00            0.00         50.48         0.00         0.00
     35.0       48.19            0.00            0.00         48.19         0.00         0.00
     21.2       44.94            0.00            0.00         44.94         0.00         0.00
      7.5       38.84            0.00            0.00         38.84         0.00         0.00


Harvested Random Seeds after Generation of the Random Numbers:

   1367762616 Harvested seed # 1
   1095836567 Harvested seed # 2


Hub-Height Simulated Turbulence Statistical Summary:

   Type of Wind        Min (m/s)   Mean (m/s)    Max (m/s)  Sigma (m/s)       TI (%)
   ----------------    ---------   ----------    ---------  -----------       ------
   Longitudinal (u)        26.93        55.00        81.30        6.258       11.378
   Lateral (v)            -20.04        -0.00        19.96        4.739        8.617
   Vertical (w)           -11.56        -0.00        12.71        2.868        5.215
   U component             26.93        55.00        81.30        6.258       11.378
   V component            -20.04        -0.00        19.96        4.739        8.617
   W component            -11.56        -0.00        12.71        2.868        5.215
   Horizontal (U&V)        27.20        55.21        81.31        6.245       11.312
   Total                   27.41        55.28        81.37        6.237       11.283

                       Min Reynolds     Mean Reynolds    Max Reynolds    Correlation
   Product             Stress (m/s)^2   Stress (m/s)^2   Stress (m/s)^2  Coefficient
   ----------------    --------------   --------------   --------------  -----------
   u'w'                   -193.162             0.212           193.784         0.012
   u'v'                   -234.546            -0.033           243.453        -0.001
   v'w'                   -138.385             0.009           118.559         0.001


   Friction Velocity (Ustar)  =      0.460 m/s
   Maximum Instantaneous TKE  =    407.047 (m/s)^2
   Maximum Instantaneous CTKE =    122.035 (m/s)^2


Grid Point Variance Summary:

   Y-coord  -82.50  -68.75  -55.00  -41.25  -27.50  -13.75    0.00   13.75   27.50   41.25   55.00   68.75   82.50

   Height   Standard deviation at grid points for the u component:
   172.50    5.953   6.066   6.009   5.905   6.043   6.088   6.170   6.133   6.063   6.101   6.046   6.013   6.091
   158.75    5.936   5.928   6.089   6.007   6.132   6.203   6.071   5.998   5.998   6.034   6.016   6.104   5.993
   145.00    5.920   5.957   6.059   6.135   6.054   6.017   6.091   6.066   6.081   6.095   6.054   6.124   6.114
   131.25    5.938   6.040   6.104   6.151   6.112   6.180   6.212   6.158   6.101   6.125   6.107   6.126   6.033
   117.50    5.958   5.989   6.051   6.142   6.169   6.258   6.111   6.155   6.166   6.148   6.126   6.082   6.164
   103.75    6.048   5.998   6.029   6.141   6.162   6.301   6.200   6.221   6.200   6.158   6.154   6.206   6.207
    90.00    6.052   6.004   6.200   6.138   6.250   6.341   6.258   6.274   6.356   6.231   6.163   6.229   6.341
    76.25    6.055   6.099   6.147   6.069   6.207   6.263   6.442   6.437   6.327   6.332   6.338   6.265   6.248
    62.50    6.151   6.112   6.094   6.186   6.048   6.218   6.315   6.376   6.410   6.346   6.289   6.191   6.312
    48.75    6.033   6.079   6.110   6.175   6.112   6.200   6.375   6.386   6.404   6.354   6.301   6.315   6.277
    35.00    6.023   5.927   5.992   6.084   6.149   6.269   6.318   6.280   6.322   6.211   6.302   6.388   6.182
    21.25    5.897   5.840   5.977   6.051   6.183   6.188   6.168   6.092   6.232   6.246   6.252   6.237   6.208
     7.50    5.981   5.886   5.944   6.026   6.076   6.122   6.092   6.063   6.026   6.167   6.192   6.230   6.189

   Height   Standard deviation at grid points for the v component:
   172.50    4.739   4.739   4.739   4.739   4.739   4.739   4.739   4.739   4.739   4.739   4.739   4.739   4.739
   158.75    4.739   4.739   4.739   4.739   4.739   4.739   4.739   4.739   4.739   4.739   4.739   4.739   4.739
   145.00    4.739   4.739   4.739   4.739   4.739   4.739   4.739   4.739   4.739   4.739   4.739   4.739   4.739
   131.25    4.739   4.739   4.739   4.739   4.739   4.739   4.739   4.739   4.739   4.739   4.739   4.739   4.739
   117.50    4.739   4.739   4.739   4.739   4.739   4.739   4.739   4.739   4.739   4.739   4.739   4.739   4.739
   103.75    4.739   4.739   4.739   4.739   4.739   4.739   4.739   4.739   4.739   4.739   4.739   4.739   4.739
    90.00    4.739   4.739   4.739   4.739   4.739   4.739   4.739   4.739   4.739   4.739   4.739   4.739   4.739
    76.25    4.739   4.739   4.739   4.739   4.739   4.739   4.739   4.739   4.739   4.739   4.739   4.739   4.739
    62.50    4.739   4.739   4.739   4.739   4.739   4.739   4.739   4.739   4.739   4.739   4.739   4.739   4.739
    48.75    4.739   4.739   4.739   4.739   4.739   4.739   4.739   4.739   4.739   4.739   4.739   4.739   4.739
    35.00    4.739   4.739   4.739   4.739   4.739   4.739   4.739   4.739   4.739   4.739   4.739   4.739   4.739
    21.25    4.739   4.739   4.739   4.739   4.739   4.739   4.739   4.739   4.739   4.739   4.739   4.739   4.739
     7.50    4.739   4.739   4.739   4.739   4.739   4.739   4.739   4.739   4.739   4.739   4.739   4.739   4.739

   Height   Standard deviation at grid points for the w component:
   172.50    2.868   2.868   2.868   2.868   2.868   2.868   2.868   2.868   2.868   2.868   2.868   2.868   2.868
   158.75    2.868   2.868   2.868   2.868   2.868   2.868   2.868   2.868   2.868   2.868   2.868   2.868   2.868
   145.00    2.868   2.868   2.868   2.868   2.868   2.868   2.868   2.868   2.868   2.868   2.868   2.868   2.868
   131.25    2.868   2.868   2.868   2.868   2.868   2.868   2.868   2.868   2.868   2.868   2.868   2.868   2.868
   117.50    2.868   2.868   2.868   2.868   2.868   2.868   2.868   2.868   2.868   2.868   2.868   2.868   2.868
   103.75    2.868   2.868   2.868   2.868   2.868   2.868   2.868   2.868   2.868   2.868   2.868   2.868   2.868
    90.00    2.868   2.868   2.868   2.868   2.868   2.868   2.868   2.868   2.868   2.868   2.868   2.868   2.868
    76.25    2.868   2.868   2.868   2.868   2.868   2.868   2.868   2.868   2.868   2.868   2.868   2.868   2.868
    62.50    2.868   2.868   2.868   2.868   2.868   2.868   2.868   2.868   2.868   2.868   2.868   2.868   2.868
    48.75    2.868   2.868   2.868   2.868   2.868   2.868   2.868   2.868   2.868   2.868   2.868   2.868   2.868
    35.00    2.868   2.868   2.868   2.868   2.868   2.868   2.868   2.868   2.868   2.868   2.868   2.868   2.868
    21.25    2.868   2.868   2.868   2.868   2.868   2.868   2.868   2.868   2.868   2.868   2.868   2.868   2.868
     7.50    2.868   2.868   2.868   2.868   2.868   2.868   2.868   2.868   2.868   2.868   2.868   2.868   2.868

   Mean standard deviation across all grid points:
      u component:    6.143 m/s
      v component:    4.739 m/s
      w component:    2.868 m/s


U-component (X) statistics from the interpolated hub point:

   Mean =  55.0000 m/s
   TI   =  11.3781 %


Processing complete.  16.125 CPU seconds used.
