
This summary file was generated by TurbSim (v2.00.07a-bjj, 14-Jun-2016) on 23-Mar-2020 at 10:33:23.


Runtime Options:

        51  Random seed #1
        52  Random seed #2
         F  Output binary HH turbulence parameters?
         F  Output formatted turbulence parameters?
         F  Output AeroDyn HH files?
         T  Output AeroDyn FF files?
         F  Output BLADED FF files?
         F  Output tower data?
         F  Output formatted FF files?
         F  Output coherent turbulence time step file?
         T  Clockwise rotation when looking downwind?
 0 -  NONE  IEC turbulence models scaled to exact specified standard deviation


Turbine/Model Specifications:

        13  Vertical grid-point matrix dimension
        13  Horizontal grid-point matrix dimension
     0.050  Time step [seconds]
  3630.000  Analysis time [seconds]
  3630.000  Usable output time [seconds]
    90.000  Hub height [m]
   165.000  Grid height [m]
   165.000  Grid width [m]
     0.000  Vertical flow angle [degrees]
     0.000  Horizontal flow angle [degrees]


Meteorological Boundary Conditions:

    IECKAI  IEC Kaimal spectral model
         3  IEC standard: IEC 61400-3 Ed. 1: 2006
    11.000  Percent turbulence intensity, IEC 61400-3 Ed. 1: 2006
       NTM  IEC Normal Turbulence Model
       N/A  IEC Extreme Turbulence Model (ETM) "c" parameter [m/s]
       IEC  Wind profile type
    90.000  Reference height [m]
    65.000  Reference wind speed [m/s]
       N/A  Jet height [m]
     0.140  Power law exponent
     0.030  Surface roughness length [m]


Non-IEC Meteorological Boundary Conditions:

       N/A  Site latitude [degrees]
       N/A  Gradient Richardson number
       N/A  Friction or shear velocity [m/s]
       N/A  Mixing layer depth [m]
       N/A  Mean hub u'w' Reynolds stress
       N/A  Mean hub u'v' Reynolds stress
       N/A  Mean hub v'w' Reynolds stress


Spatial Coherence Models:

       IEC  u-component coherence model
      NONE  v-component coherence model
      NONE  w-component coherence model
(   12.000, 0.353E-03)  u-component coherence parameters
                   N/A  v-component coherence parameters
                   N/A  w-component coherence parameters
       N/A  Coherence exponent


You have requested that the following file(s) be generated:

   5_65.bts (AeroDyn/TurbSim full-field wind file)


Turbulence Simulation Scaling Parameter Summary:

   Turbulence model used                            =  IEC Kaimal
   Turbulence characteristic                        =  User-specified
   IEC standard                                     =  IEC 61400-3 Ed. 1: 2006
   Mean wind speed at hub height                    =   65.000 m/s
   Characteristic value of standard deviation       =    7.150 m/s
   Turbulence scale                                 =   42.000 m
   u-component integral scale                       =  340.200 m
   Coherency scale                                  =  340.200 m
   Characteristic value of hub turbulence intensity =   11.000%
   Gradient Richardson number                       =    0.000

   Wind profile type                                =  Power law on rotor disk, logarithmic elsewhere
   Power law exponent                               =    0.140
   Mean shear across rotor disk                     =    0.153 (m/s)/m
   Assumed rotor diameter                           =  165.000 m
   Surface roughness length                         =    0.030 m

   Nyquist frequency of turbulent wind field        =   10.000 Hz

   Number of time steps in the FFT                  =    72600
   Number of time steps output                      =    72600
   Number of points simulated                       =      169


Mean Flow Angles:

   Vertical   =   0.0 degrees
   Horizontal =   0.0 degrees

Mean Wind Speed Profile:

   Height    Wind Speed   Horizontal Angle  Vertical Angle  U-comp (X)   V-comp (Y)   W-comp (Z)
     (m)        (m/s)         (degrees)       (degrees)       (m/s)        (m/s)        (m/s)   
   ------    ----------   ----------------  --------------  ----------   ----------   ----------
    172.5       71.20            0.00            0.00         71.20         0.00         0.00
    158.8       70.38            0.00            0.00         70.38         0.00         0.00
    145.0       69.49            0.00            0.00         69.49         0.00         0.00
    131.2       68.53            0.00            0.00         68.53         0.00         0.00
    117.5       67.47            0.00            0.00         67.47         0.00         0.00
    103.8       66.31            0.00            0.00         66.31         0.00         0.00
     90.0       65.00            0.00            0.00         65.00         0.00         0.00
     76.2       63.51            0.00            0.00         63.51         0.00         0.00
     62.5       61.77            0.00            0.00         61.77         0.00         0.00
     48.8       59.65            0.00            0.00         59.65         0.00         0.00
     35.0       56.95            0.00            0.00         56.95         0.00         0.00
     21.2       53.11            0.00            0.00         53.11         0.00         0.00
      7.5       45.90            0.00            0.00         45.90         0.00         0.00


Harvested Random Seeds after Generation of the Random Numbers:

   1367762616 Harvested seed # 1
   1095836567 Harvested seed # 2


Hub-Height Simulated Turbulence Statistical Summary:

   Type of Wind        Min (m/s)   Mean (m/s)    Max (m/s)  Sigma (m/s)       TI (%)
   ----------------    ---------   ----------    ---------  -----------       ------
   Longitudinal (u)        31.87        65.00        96.61        7.372       11.341
   Lateral (v)            -23.37        -0.00        23.48        5.588        8.597
   Vertical (w)           -13.61        -0.00        14.78        3.368        5.181
   U component             31.87        65.00        96.61        7.372       11.341
   V component            -23.37        -0.00        23.48        5.588        8.597
   W component            -13.61        -0.00        14.78        3.368        5.181
   Horizontal (U&V)        32.17        65.24        96.62        7.357       11.276
   Total                   32.38        65.33        96.69        7.347       11.247

                       Min Reynolds     Mean Reynolds    Max Reynolds    Correlation
   Product             Stress (m/s)^2   Stress (m/s)^2   Stress (m/s)^2  Coefficient
   ----------------    --------------   --------------   --------------  -----------
   u'w'                   -265.549             0.304           272.613         0.012
   u'v'                   -341.564            -0.067           340.160        -0.002
   v'w'                   -189.597             0.002           161.874         0.000


   Friction Velocity (Ustar)  =      0.552 m/s
   Maximum Instantaneous TKE  =    565.169 (m/s)^2
   Maximum Instantaneous CTKE =    177.345 (m/s)^2


Grid Point Variance Summary:

   Y-coord  -82.50  -68.75  -55.00  -41.25  -27.50  -13.75    0.00   13.75   27.50   41.25   55.00   68.75   82.50

   Height   Standard deviation at grid points for the u component:
   172.50    7.047   7.176   7.116   7.004   7.157   7.211   7.298   7.249   7.156   7.201   7.137   7.102   7.184
   158.75    7.020   7.020   7.196   7.108   7.249   7.335   7.188   7.101   7.088   7.129   7.110   7.203   7.079
   145.00    7.010   7.051   7.159   7.248   7.167   7.132   7.215   7.175   7.187   7.196   7.151   7.220   7.211
   131.25    7.039   7.144   7.218   7.269   7.238   7.319   7.347   7.276   7.204   7.225   7.213   7.227   7.122
   117.50    7.060   7.096   7.167   7.267   7.291   7.390   7.227   7.266   7.279   7.258   7.236   7.183   7.261
   103.75    7.148   7.089   7.126   7.254   7.274   7.429   7.315   7.333   7.311   7.256   7.265   7.322   7.323
    90.00    7.137   7.081   7.297   7.237   7.365   7.461   7.372   7.383   7.483   7.342   7.267   7.346   7.461
    76.25    7.140   7.192   7.252   7.160   7.312   7.365   7.557   7.552   7.441   7.449   7.448   7.373   7.363
    62.50    7.246   7.207   7.186   7.280   7.128   7.308   7.412   7.482   7.522   7.461   7.393   7.290   7.431
    48.75    7.112   7.165   7.192   7.263   7.190   7.290   7.480   7.501   7.526   7.467   7.402   7.417   7.382
    35.00    7.105   6.995   7.057   7.158   7.229   7.369   7.425   7.396   7.434   7.317   7.407   7.493   7.277
    21.25    6.973   6.905   7.045   7.130   7.271   7.281   7.264   7.185   7.342   7.353   7.351   7.327   7.289
     7.50    7.062   6.955   7.015   7.102   7.165   7.216   7.181   7.154   7.106   7.264   7.287   7.323   7.279

   Height   Standard deviation at grid points for the v component:
   172.50    5.588   5.588   5.588   5.588   5.588   5.588   5.588   5.588   5.588   5.588   5.588   5.588   5.588
   158.75    5.588   5.588   5.588   5.588   5.588   5.588   5.588   5.588   5.588   5.588   5.588   5.588   5.588
   145.00    5.588   5.588   5.588   5.588   5.588   5.588   5.588   5.588   5.588   5.588   5.588   5.588   5.588
   131.25    5.588   5.588   5.588   5.588   5.588   5.588   5.588   5.588   5.588   5.588   5.588   5.588   5.588
   117.50    5.588   5.588   5.588   5.588   5.588   5.588   5.588   5.588   5.588   5.588   5.588   5.588   5.588
   103.75    5.588   5.588   5.588   5.588   5.588   5.588   5.588   5.588   5.588   5.588   5.588   5.588   5.588
    90.00    5.588   5.588   5.588   5.588   5.588   5.588   5.588   5.588   5.588   5.588   5.588   5.588   5.588
    76.25    5.588   5.588   5.588   5.588   5.588   5.588   5.588   5.588   5.588   5.588   5.588   5.588   5.588
    62.50    5.588   5.588   5.588   5.588   5.588   5.588   5.588   5.588   5.588   5.588   5.588   5.588   5.588
    48.75    5.588   5.588   5.588   5.588   5.588   5.588   5.588   5.588   5.588   5.588   5.588   5.588   5.588
    35.00    5.588   5.588   5.588   5.588   5.588   5.588   5.588   5.588   5.588   5.588   5.588   5.588   5.588
    21.25    5.588   5.588   5.588   5.588   5.588   5.588   5.588   5.588   5.588   5.588   5.588   5.588   5.588
     7.50    5.588   5.588   5.588   5.588   5.588   5.588   5.588   5.588   5.588   5.588   5.588   5.588   5.588

   Height   Standard deviation at grid points for the w component:
   172.50    3.368   3.368   3.368   3.368   3.368   3.368   3.368   3.368   3.368   3.368   3.368   3.368   3.368
   158.75    3.368   3.368   3.368   3.368   3.368   3.368   3.368   3.368   3.368   3.368   3.368   3.368   3.368
   145.00    3.368   3.368   3.368   3.368   3.368   3.368   3.368   3.368   3.368   3.368   3.368   3.368   3.368
   131.25    3.368   3.368   3.368   3.368   3.368   3.368   3.368   3.368   3.368   3.368   3.368   3.368   3.368
   117.50    3.368   3.368   3.368   3.368   3.368   3.368   3.368   3.368   3.368   3.368   3.368   3.368   3.368
   103.75    3.368   3.368   3.368   3.368   3.368   3.368   3.368   3.368   3.368   3.368   3.368   3.368   3.368
    90.00    3.368   3.368   3.368   3.368   3.368   3.368   3.368   3.368   3.368   3.368   3.368   3.368   3.368
    76.25    3.368   3.368   3.368   3.368   3.368   3.368   3.368   3.368   3.368   3.368   3.368   3.368   3.368
    62.50    3.368   3.368   3.368   3.368   3.368   3.368   3.368   3.368   3.368   3.368   3.368   3.368   3.368
    48.75    3.368   3.368   3.368   3.368   3.368   3.368   3.368   3.368   3.368   3.368   3.368   3.368   3.368
    35.00    3.368   3.368   3.368   3.368   3.368   3.368   3.368   3.368   3.368   3.368   3.368   3.368   3.368
    21.25    3.368   3.368   3.368   3.368   3.368   3.368   3.368   3.368   3.368   3.368   3.368   3.368   3.368
     7.50    3.368   3.368   3.368   3.368   3.368   3.368   3.368   3.368   3.368   3.368   3.368   3.368   3.368

   Mean standard deviation across all grid points:
      u component:    7.244 m/s
      v component:    5.588 m/s
      w component:    3.368 m/s


U-component (X) statistics from the interpolated hub point:

   Mean =  65.0000 m/s
   TI   =  11.3413 %


Processing complete.  16.266 CPU seconds used.
