
This summary file was generated by TurbSim (v2.00.07a-bjj, 14-Jun-2016) on 23-Mar-2020 at 10:34:26.


Runtime Options:

        51  Random seed #1
        52  Random seed #2
         F  Output binary HH turbulence parameters?
         F  Output formatted turbulence parameters?
         F  Output AeroDyn HH files?
         T  Output AeroDyn FF files?
         F  Output BLADED FF files?
         F  Output tower data?
         F  Output formatted FF files?
         F  Output coherent turbulence time step file?
         T  Clockwise rotation when looking downwind?
 0 -  NONE  IEC turbulence models scaled to exact specified standard deviation


Turbine/Model Specifications:

        13  Vertical grid-point matrix dimension
        13  Horizontal grid-point matrix dimension
     0.050  Time step [seconds]
  3630.000  Analysis time [seconds]
  3630.000  Usable output time [seconds]
    90.000  Hub height [m]
   165.000  Grid height [m]
   165.000  Grid width [m]
     0.000  Vertical flow angle [degrees]
     0.000  Horizontal flow angle [degrees]


Meteorological Boundary Conditions:

    IECKAI  IEC Kaimal spectral model
         3  IEC standard: IEC 61400-3 Ed. 1: 2006
    11.000  Percent turbulence intensity, IEC 61400-3 Ed. 1: 2006
       NTM  IEC Normal Turbulence Model
       N/A  IEC Extreme Turbulence Model (ETM) "c" parameter [m/s]
       IEC  Wind profile type
    90.000  Reference height [m]
    80.000  Reference wind speed [m/s]
       N/A  Jet height [m]
     0.140  Power law exponent
     0.030  Surface roughness length [m]


Non-IEC Meteorological Boundary Conditions:

       N/A  Site latitude [degrees]
       N/A  Gradient Richardson number
       N/A  Friction or shear velocity [m/s]
       N/A  Mixing layer depth [m]
       N/A  Mean hub u'w' Reynolds stress
       N/A  Mean hub u'v' Reynolds stress
       N/A  Mean hub v'w' Reynolds stress


Spatial Coherence Models:

       IEC  u-component coherence model
      NONE  v-component coherence model
      NONE  w-component coherence model
(   12.000, 0.353E-03)  u-component coherence parameters
                   N/A  v-component coherence parameters
                   N/A  w-component coherence parameters
       N/A  Coherence exponent


You have requested that the following file(s) be generated:

   5_80.bts (AeroDyn/TurbSim full-field wind file)


Turbulence Simulation Scaling Parameter Summary:

   Turbulence model used                            =  IEC Kaimal
   Turbulence characteristic                        =  User-specified
   IEC standard                                     =  IEC 61400-3 Ed. 1: 2006
   Mean wind speed at hub height                    =   80.000 m/s
   Characteristic value of standard deviation       =    8.800 m/s
   Turbulence scale                                 =   42.000 m
   u-component integral scale                       =  340.200 m
   Coherency scale                                  =  340.200 m
   Characteristic value of hub turbulence intensity =   11.000%
   Gradient Richardson number                       =    0.000

   Wind profile type                                =  Power law on rotor disk, logarithmic elsewhere
   Power law exponent                               =    0.140
   Mean shear across rotor disk                     =    0.189 (m/s)/m
   Assumed rotor diameter                           =  165.000 m
   Surface roughness length                         =    0.030 m

   Nyquist frequency of turbulent wind field        =   10.000 Hz

   Number of time steps in the FFT                  =    72600
   Number of time steps output                      =    72600
   Number of points simulated                       =      169


Mean Flow Angles:

   Vertical   =   0.0 degrees
   Horizontal =   0.0 degrees

Mean Wind Speed Profile:

   Height    Wind Speed   Horizontal Angle  Vertical Angle  U-comp (X)   V-comp (Y)   W-comp (Z)
     (m)        (m/s)         (degrees)       (degrees)       (m/s)        (m/s)        (m/s)   
   ------    ----------   ----------------  --------------  ----------   ----------   ----------
    172.5       87.63            0.00            0.00         87.63         0.00         0.00
    158.8       86.62            0.00            0.00         86.62         0.00         0.00
    145.0       85.52            0.00            0.00         85.52         0.00         0.00
    131.2       84.34            0.00            0.00         84.34         0.00         0.00
    117.5       83.04            0.00            0.00         83.04         0.00         0.00
    103.8       81.61            0.00            0.00         81.61         0.00         0.00
     90.0       80.00            0.00            0.00         80.00         0.00         0.00
     76.2       78.16            0.00            0.00         78.16         0.00         0.00
     62.5       76.02            0.00            0.00         76.02         0.00         0.00
     48.8       73.42            0.00            0.00         73.42         0.00         0.00
     35.0       70.09            0.00            0.00         70.09         0.00         0.00
     21.2       65.36            0.00            0.00         65.36         0.00         0.00
      7.5       56.49            0.00            0.00         56.49         0.00         0.00


Harvested Random Seeds after Generation of the Random Numbers:

   1367762616 Harvested seed # 1
   1095836567 Harvested seed # 2


Hub-Height Simulated Turbulence Statistical Summary:

   Type of Wind        Min (m/s)   Mean (m/s)    Max (m/s)  Sigma (m/s)       TI (%)
   ----------------    ---------   ----------    ---------  -----------       ------
   Longitudinal (u)        39.74        80.00       119.44        9.028       11.285
   Lateral (v)            -28.24        -0.00        28.66        6.854        8.568
   Vertical (w)           -16.61         0.00        18.15        4.108        5.135
   U component             39.74        80.00       119.44        9.028       11.285
   V component            -28.24        -0.00        28.66        6.854        8.568
   W component            -16.61         0.00        18.15        4.108        5.135
   Horizontal (U&V)        40.07        80.30       119.45        9.009       11.220
   Total                   40.28        80.40       119.54        8.998       11.191

                       Min Reynolds     Mean Reynolds    Max Reynolds    Correlation
   Product             Stress (m/s)^2   Stress (m/s)^2   Stress (m/s)^2  Coefficient
   ----------------    --------------   --------------   --------------  -----------
   u'w'                   -388.716             0.467           410.557         0.013
   u'v'                   -542.996            -0.121           519.537        -0.002
   v'w'                   -278.992            -0.019           244.474        -0.001


   Friction Velocity (Ustar)  =      0.684 m/s
   Maximum Instantaneous TKE  =    831.961 (m/s)^2
   Maximum Instantaneous CTKE =    281.090 (m/s)^2


Grid Point Variance Summary:

   Y-coord  -82.50  -68.75  -55.00  -41.25  -27.50  -13.75    0.00   13.75   27.50   41.25   55.00   68.75   82.50

   Height   Standard deviation at grid points for the u component:
   172.50    8.683   8.832   8.771   8.651   8.818   8.887   8.980   8.915   8.792   8.845   8.770   8.731   8.816
   158.75    8.639   8.653   8.849   8.755   8.918   9.022   8.858   8.748   8.719   8.765   8.744   8.846   8.701
   145.00    8.638   8.685   8.800   8.905   8.828   8.798   8.893   8.830   8.837   8.839   8.792   8.858   8.850
   131.25    8.683   8.793   8.876   8.933   8.915   9.015   9.035   8.943   8.853   8.866   8.865   8.873   8.752
   117.50    8.701   8.744   8.829   8.940   8.960   9.072   8.887   8.919   8.938   8.912   8.894   8.830   8.901
   103.75    8.782   8.710   8.756   8.905   8.925   9.102   8.971   8.987   8.965   8.893   8.920   8.984   8.988
    90.00    8.754   8.687   8.928   8.871   9.022   9.120   9.028   9.033   9.159   8.998   8.914   9.010   9.128
    76.25    8.756   8.818   8.896   8.786   8.956   9.004   9.214   9.209   9.101   9.113   9.103   9.026   9.026
    62.50    8.876   8.837   8.814   8.907   8.737   8.932   9.044   9.128   9.178   9.124   9.039   8.932   9.099
    48.75    8.720   8.784   8.805   8.883   8.796   8.914   9.126   9.161   9.198   9.126   9.048   9.061   9.031
    35.00    8.721   8.592   8.647   8.757   8.837   9.008   9.075   9.061   9.090   8.970   9.055   9.139   8.909
    21.25    8.585   8.501   8.642   8.739   8.893   8.912   8.899   8.817   9.000   9.006   8.993   8.952   8.902
     7.50    8.680   8.557   8.617   8.709   8.792   8.848   8.806   8.781   8.721   8.903   8.925   8.953   8.906

   Height   Standard deviation at grid points for the v component:
   172.50    6.854   6.854   6.854   6.854   6.854   6.854   6.854   6.854   6.854   6.854   6.854   6.854   6.854
   158.75    6.854   6.854   6.854   6.854   6.854   6.854   6.854   6.854   6.854   6.854   6.854   6.854   6.854
   145.00    6.854   6.854   6.854   6.854   6.854   6.854   6.854   6.854   6.854   6.854   6.854   6.854   6.854
   131.25    6.854   6.854   6.854   6.854   6.854   6.854   6.854   6.854   6.854   6.854   6.854   6.854   6.854
   117.50    6.854   6.854   6.854   6.854   6.854   6.854   6.854   6.854   6.854   6.854   6.854   6.854   6.854
   103.75    6.854   6.854   6.854   6.854   6.854   6.854   6.854   6.854   6.854   6.854   6.854   6.854   6.854
    90.00    6.854   6.854   6.854   6.854   6.854   6.854   6.854   6.854   6.854   6.854   6.854   6.854   6.854
    76.25    6.854   6.854   6.854   6.854   6.854   6.854   6.854   6.854   6.854   6.854   6.854   6.854   6.854
    62.50    6.854   6.854   6.854   6.854   6.854   6.854   6.854   6.854   6.854   6.854   6.854   6.854   6.854
    48.75    6.854   6.854   6.854   6.854   6.854   6.854   6.854   6.854   6.854   6.854   6.854   6.854   6.854
    35.00    6.854   6.854   6.854   6.854   6.854   6.854   6.854   6.854   6.854   6.854   6.854   6.854   6.854
    21.25    6.854   6.854   6.854   6.854   6.854   6.854   6.854   6.854   6.854   6.854   6.854   6.854   6.854
     7.50    6.854   6.854   6.854   6.854   6.854   6.854   6.854   6.854   6.854   6.854   6.854   6.854   6.854

   Height   Standard deviation at grid points for the w component:
   172.50    4.108   4.108   4.108   4.108   4.108   4.108   4.108   4.108   4.108   4.108   4.108   4.108   4.108
   158.75    4.108   4.108   4.108   4.108   4.108   4.108   4.108   4.108   4.108   4.108   4.108   4.108   4.108
   145.00    4.108   4.108   4.108   4.108   4.108   4.108   4.108   4.108   4.108   4.108   4.108   4.108   4.108
   131.25    4.108   4.108   4.108   4.108   4.108   4.108   4.108   4.108   4.108   4.108   4.108   4.108   4.108
   117.50    4.108   4.108   4.108   4.108   4.108   4.108   4.108   4.108   4.108   4.108   4.108   4.108   4.108
   103.75    4.108   4.108   4.108   4.108   4.108   4.108   4.108   4.108   4.108   4.108   4.108   4.108   4.108
    90.00    4.108   4.108   4.108   4.108   4.108   4.108   4.108   4.108   4.108   4.108   4.108   4.108   4.108
    76.25    4.108   4.108   4.108   4.108   4.108   4.108   4.108   4.108   4.108   4.108   4.108   4.108   4.108
    62.50    4.108   4.108   4.108   4.108   4.108   4.108   4.108   4.108   4.108   4.108   4.108   4.108   4.108
    48.75    4.108   4.108   4.108   4.108   4.108   4.108   4.108   4.108   4.108   4.108   4.108   4.108   4.108
    35.00    4.108   4.108   4.108   4.108   4.108   4.108   4.108   4.108   4.108   4.108   4.108   4.108   4.108
    21.25    4.108   4.108   4.108   4.108   4.108   4.108   4.108   4.108   4.108   4.108   4.108   4.108   4.108
     7.50    4.108   4.108   4.108   4.108   4.108   4.108   4.108   4.108   4.108   4.108   4.108   4.108   4.108

   Mean standard deviation across all grid points:
      u component:    8.887 m/s
      v component:    6.854 m/s
      w component:    4.108 m/s


U-component (X) statistics from the interpolated hub point:

   Mean =  80.0000 m/s
   TI   =  11.2848 %


Processing complete.  15.953 CPU seconds used.
