
This summary file was generated by TurbSim (v2.00.07a-bjj, 14-Jun-2016) on 23-Mar-2020 at 10:35:28.


Runtime Options:

        51  Random seed #1
        52  Random seed #2
         F  Output binary HH turbulence parameters?
         F  Output formatted turbulence parameters?
         F  Output AeroDyn HH files?
         T  Output AeroDyn FF files?
         F  Output BLADED FF files?
         F  Output tower data?
         F  Output formatted FF files?
         F  Output coherent turbulence time step file?
         T  Clockwise rotation when looking downwind?
 0 -  NONE  IEC turbulence models scaled to exact specified standard deviation


Turbine/Model Specifications:

        13  Vertical grid-point matrix dimension
        13  Horizontal grid-point matrix dimension
     0.050  Time step [seconds]
  3630.000  Analysis time [seconds]
  3630.000  Usable output time [seconds]
    90.000  Hub height [m]
   165.000  Grid height [m]
   165.000  Grid width [m]
     0.000  Vertical flow angle [degrees]
     0.000  Horizontal flow angle [degrees]


Meteorological Boundary Conditions:

    IECKAI  IEC Kaimal spectral model
         3  IEC standard: IEC 61400-3 Ed. 1: 2006
    11.000  Percent turbulence intensity, IEC 61400-3 Ed. 1: 2006
       NTM  IEC Normal Turbulence Model
       N/A  IEC Extreme Turbulence Model (ETM) "c" parameter [m/s]
       IEC  Wind profile type
    90.000  Reference height [m]
    95.000  Reference wind speed [m/s]
       N/A  Jet height [m]
     0.140  Power law exponent
     0.030  Surface roughness length [m]


Non-IEC Meteorological Boundary Conditions:

       N/A  Site latitude [degrees]
       N/A  Gradient Richardson number
       N/A  Friction or shear velocity [m/s]
       N/A  Mixing layer depth [m]
       N/A  Mean hub u'w' Reynolds stress
       N/A  Mean hub u'v' Reynolds stress
       N/A  Mean hub v'w' Reynolds stress


Spatial Coherence Models:

       IEC  u-component coherence model
      NONE  v-component coherence model
      NONE  w-component coherence model
(   12.000, 0.353E-03)  u-component coherence parameters
                   N/A  v-component coherence parameters
                   N/A  w-component coherence parameters
       N/A  Coherence exponent


You have requested that the following file(s) be generated:

   5_95.bts (AeroDyn/TurbSim full-field wind file)


Turbulence Simulation Scaling Parameter Summary:

   Turbulence model used                            =  IEC Kaimal
   Turbulence characteristic                        =  User-specified
   IEC standard                                     =  IEC 61400-3 Ed. 1: 2006
   Mean wind speed at hub height                    =   95.000 m/s
   Characteristic value of standard deviation       =   10.450 m/s
   Turbulence scale                                 =   42.000 m
   u-component integral scale                       =  340.200 m
   Coherency scale                                  =  340.200 m
   Characteristic value of hub turbulence intensity =   11.000%
   Gradient Richardson number                       =    0.000

   Wind profile type                                =  Power law on rotor disk, logarithmic elsewhere
   Power law exponent                               =    0.140
   Mean shear across rotor disk                     =    0.224 (m/s)/m
   Assumed rotor diameter                           =  165.000 m
   Surface roughness length                         =    0.030 m

   Nyquist frequency of turbulent wind field        =   10.000 Hz

   Number of time steps in the FFT                  =    72600
   Number of time steps output                      =    72600
   Number of points simulated                       =      169


Mean Flow Angles:

   Vertical   =   0.0 degrees
   Horizontal =   0.0 degrees

Mean Wind Speed Profile:

   Height    Wind Speed   Horizontal Angle  Vertical Angle  U-comp (X)   V-comp (Y)   W-comp (Z)
     (m)        (m/s)         (degrees)       (degrees)       (m/s)        (m/s)        (m/s)   
   ------    ----------   ----------------  --------------  ----------   ----------   ----------
    172.5      104.06            0.00            0.00        104.06         0.00         0.00
    158.8      102.86            0.00            0.00        102.86         0.00         0.00
    145.0      101.56            0.00            0.00        101.56         0.00         0.00
    131.2      100.15            0.00            0.00        100.15         0.00         0.00
    117.5       98.61            0.00            0.00         98.61         0.00         0.00
    103.8       96.91            0.00            0.00         96.91         0.00         0.00
     90.0       95.00            0.00            0.00         95.00         0.00         0.00
     76.2       92.82            0.00            0.00         92.82         0.00         0.00
     62.5       90.27            0.00            0.00         90.27         0.00         0.00
     48.8       87.19            0.00            0.00         87.19         0.00         0.00
     35.0       83.23            0.00            0.00         83.23         0.00         0.00
     21.2       77.62            0.00            0.00         77.62         0.00         0.00
      7.5       67.09            0.00            0.00         67.09         0.00         0.00


Harvested Random Seeds after Generation of the Random Numbers:

   1367762616 Harvested seed # 1
   1095836567 Harvested seed # 2


Hub-Height Simulated Turbulence Statistical Summary:

   Type of Wind        Min (m/s)   Mean (m/s)    Max (m/s)  Sigma (m/s)       TI (%)
   ----------------    ---------   ----------    ---------  -----------       ------
   Longitudinal (u)        48.10        95.00       142.04       10.670       11.231
   Lateral (v)            -32.99        -0.00        33.72        8.113        8.540
   Vertical (w)           -19.55         0.00        21.54        4.837        5.091
   U component             48.10        95.00       142.04       10.670       11.231
   V component            -32.99        -0.00        33.72        8.113        8.540
   W component            -19.55         0.00        21.54        4.837        5.091
   Horizontal (U&V)        48.46        95.35       142.07       10.648       11.167
   Total                   48.66        95.47       142.16       10.635       11.139

                       Min Reynolds     Mean Reynolds    Max Reynolds    Correlation
   Product             Stress (m/s)^2   Stress (m/s)^2   Stress (m/s)^2  Coefficient
   ----------------    --------------   --------------   --------------  -----------
   u'w'                   -526.498             0.653           568.989         0.013
   u'v'                   -792.849            -0.165           752.738        -0.002
   v'w'                   -382.551            -0.051           344.493        -0.001


   Friction Velocity (Ustar)  =      0.808 m/s
   Maximum Instantaneous TKE  =   1126.836 (m/s)^2
   Maximum Instantaneous CTKE =    409.538 (m/s)^2


Grid Point Variance Summary:

   Y-coord  -82.50  -68.75  -55.00  -41.25  -27.50  -13.75    0.00   13.75   27.50   41.25   55.00   68.75   82.50

   Height   Standard deviation at grid points for the u component:
   172.50   10.310  10.479  10.419  10.295  10.470  10.553  10.651  10.570  10.420  10.482  10.398  10.352  10.437
   158.75   10.251  10.279  10.493  10.394  10.577  10.697  10.520  10.387  10.343  10.394  10.372  10.480  10.313
   145.00   10.258  10.311  10.430  10.552  10.480  10.454  10.559  10.476  10.478  10.471  10.425  10.489  10.480
   131.25   10.317  10.431  10.521  10.584  10.580  10.696  10.708  10.598  10.492  10.497  10.509  10.514  10.377
   117.50   10.329  10.377  10.476  10.598  10.613  10.736  10.532  10.559  10.585  10.554  10.542  10.470  10.535
   103.75   10.402  10.318  10.372  10.540  10.560  10.756  10.613  10.628  10.605  10.520  10.564  10.634  10.643
    90.00   10.358  10.284  10.545  10.492  10.664  10.762  10.670  10.670  10.822  10.642  10.554  10.664  10.783
    76.25   10.362  10.430  10.528  10.402  10.587  10.631  10.855  10.851  10.750  10.767  10.747  10.668  10.680
    62.50   10.494  10.454  10.432  10.522  10.337  10.545  10.664  10.764  10.822  10.777  10.675  10.568  10.757
    48.75   10.320  10.391  10.408  10.491  10.393  10.530  10.759  10.809  10.857  10.776  10.687  10.697  10.671
    35.00   10.331  10.183  10.230  10.346  10.436  10.636  10.712  10.716  10.735  10.615  10.694  10.773  10.531
    21.25   10.194  10.094  10.233  10.341  10.506  10.534  10.525  10.441  10.647  10.650  10.627  10.571  10.507
     7.50   10.293  10.156  10.213  10.309  10.411  10.473  10.422  10.400  10.330  10.533  10.556  10.576  10.526

   Height   Standard deviation at grid points for the v component:
   172.50    8.113   8.113   8.113   8.113   8.113   8.113   8.113   8.113   8.113   8.113   8.113   8.113   8.113
   158.75    8.113   8.113   8.113   8.113   8.113   8.113   8.113   8.113   8.113   8.113   8.113   8.113   8.113
   145.00    8.113   8.113   8.113   8.113   8.113   8.113   8.113   8.113   8.113   8.113   8.113   8.113   8.113
   131.25    8.113   8.113   8.113   8.113   8.113   8.113   8.113   8.113   8.113   8.113   8.113   8.113   8.113
   117.50    8.113   8.113   8.113   8.113   8.113   8.113   8.113   8.113   8.113   8.113   8.113   8.113   8.113
   103.75    8.113   8.113   8.113   8.113   8.113   8.113   8.113   8.113   8.113   8.113   8.113   8.113   8.113
    90.00    8.113   8.113   8.113   8.113   8.113   8.113   8.113   8.113   8.113   8.113   8.113   8.113   8.113
    76.25    8.113   8.113   8.113   8.113   8.113   8.113   8.113   8.113   8.113   8.113   8.113   8.113   8.113
    62.50    8.113   8.113   8.113   8.113   8.113   8.113   8.113   8.113   8.113   8.113   8.113   8.113   8.113
    48.75    8.113   8.113   8.113   8.113   8.113   8.113   8.113   8.113   8.113   8.113   8.113   8.113   8.113
    35.00    8.113   8.113   8.113   8.113   8.113   8.113   8.113   8.113   8.113   8.113   8.113   8.113   8.113
    21.25    8.113   8.113   8.113   8.113   8.113   8.113   8.113   8.113   8.113   8.113   8.113   8.113   8.113
     7.50    8.113   8.113   8.113   8.113   8.113   8.113   8.113   8.113   8.113   8.113   8.113   8.113   8.113

   Height   Standard deviation at grid points for the w component:
   172.50    4.837   4.837   4.837   4.837   4.837   4.837   4.837   4.837   4.837   4.837   4.837   4.837   4.837
   158.75    4.837   4.837   4.837   4.837   4.837   4.837   4.837   4.837   4.837   4.837   4.837   4.837   4.837
   145.00    4.837   4.837   4.837   4.837   4.837   4.837   4.837   4.837   4.837   4.837   4.837   4.837   4.837
   131.25    4.837   4.837   4.837   4.837   4.837   4.837   4.837   4.837   4.837   4.837   4.837   4.837   4.837
   117.50    4.837   4.837   4.837   4.837   4.837   4.837   4.837   4.837   4.837   4.837   4.837   4.837   4.837
   103.75    4.837   4.837   4.837   4.837   4.837   4.837   4.837   4.837   4.837   4.837   4.837   4.837   4.837
    90.00    4.837   4.837   4.837   4.837   4.837   4.837   4.837   4.837   4.837   4.837   4.837   4.837   4.837
    76.25    4.837   4.837   4.837   4.837   4.837   4.837   4.837   4.837   4.837   4.837   4.837   4.837   4.837
    62.50    4.837   4.837   4.837   4.837   4.837   4.837   4.837   4.837   4.837   4.837   4.837   4.837   4.837
    48.75    4.837   4.837   4.837   4.837   4.837   4.837   4.837   4.837   4.837   4.837   4.837   4.837   4.837
    35.00    4.837   4.837   4.837   4.837   4.837   4.837   4.837   4.837   4.837   4.837   4.837   4.837   4.837
    21.25    4.837   4.837   4.837   4.837   4.837   4.837   4.837   4.837   4.837   4.837   4.837   4.837   4.837
     7.50    4.837   4.837   4.837   4.837   4.837   4.837   4.837   4.837   4.837   4.837   4.837   4.837   4.837

   Mean standard deviation across all grid points:
      u component:   10.520 m/s
      v component:    8.113 m/s
      w component:    4.837 m/s


U-component (X) statistics from the interpolated hub point:

   Mean =  95.0000 m/s
   TI   =  11.2313 %


Processing complete.  15.891 CPU seconds used.
