
This summary file was generated by TurbSim (v2.00.07a-bjj, 14-Jun-2016) on 23-Mar-2020 at 09:42:27.


Runtime Options:

        11  Random seed #1
        12  Random seed #2
         F  Output binary HH turbulence parameters?
         F  Output formatted turbulence parameters?
         F  Output AeroDyn HH files?
         T  Output AeroDyn FF files?
         F  Output BLADED FF files?
         F  Output tower data?
         F  Output formatted FF files?
         F  Output coherent turbulence time step file?
         T  Clockwise rotation when looking downwind?
 0 -  NONE  IEC turbulence models scaled to exact specified standard deviation


Turbine/Model Specifications:

        13  Vertical grid-point matrix dimension
        13  Horizontal grid-point matrix dimension
     0.050  Time step [seconds]
  3630.000  Analysis time [seconds]
  3630.000  Usable output time [seconds]
    90.000  Hub height [m]
   165.000  Grid height [m]
   165.000  Grid width [m]
     0.000  Vertical flow angle [degrees]
     0.000  Horizontal flow angle [degrees]


Meteorological Boundary Conditions:

    IECKAI  IEC Kaimal spectral model
         3  IEC standard: IEC 61400-3 Ed. 1: 2006
    11.000  Percent turbulence intensity, IEC 61400-3 Ed. 1: 2006
       NTM  IEC Normal Turbulence Model
       N/A  IEC Extreme Turbulence Model (ETM) "c" parameter [m/s]
       IEC  Wind profile type
    90.000  Reference height [m]
    26.000  Reference wind speed [m/s]
       N/A  Jet height [m]
     0.140  Power law exponent
     0.030  Surface roughness length [m]


Non-IEC Meteorological Boundary Conditions:

       N/A  Site latitude [degrees]
       N/A  Gradient Richardson number
       N/A  Friction or shear velocity [m/s]
       N/A  Mixing layer depth [m]
       N/A  Mean hub u'w' Reynolds stress
       N/A  Mean hub u'v' Reynolds stress
       N/A  Mean hub v'w' Reynolds stress


Spatial Coherence Models:

       IEC  u-component coherence model
      NONE  v-component coherence model
      NONE  w-component coherence model
(   12.000, 0.353E-03)  u-component coherence parameters
                   N/A  v-component coherence parameters
                   N/A  w-component coherence parameters
       N/A  Coherence exponent


You have requested that the following file(s) be generated:

   1_26.bts (AeroDyn/TurbSim full-field wind file)


Turbulence Simulation Scaling Parameter Summary:

   Turbulence model used                            =  IEC Kaimal
   Turbulence characteristic                        =  User-specified
   IEC standard                                     =  IEC 61400-3 Ed. 1: 2006
   Mean wind speed at hub height                    =   26.000 m/s
   Characteristic value of standard deviation       =    2.860 m/s
   Turbulence scale                                 =   42.000 m
   u-component integral scale                       =  340.200 m
   Coherency scale                                  =  340.200 m
   Characteristic value of hub turbulence intensity =   11.000%
   Gradient Richardson number                       =    0.000

   Wind profile type                                =  Power law on rotor disk, logarithmic elsewhere
   Power law exponent                               =    0.140
   Mean shear across rotor disk                     =    0.061 (m/s)/m
   Assumed rotor diameter                           =  165.000 m
   Surface roughness length                         =    0.030 m

   Nyquist frequency of turbulent wind field        =   10.000 Hz

   Number of time steps in the FFT                  =    72600
   Number of time steps output                      =    72600
   Number of points simulated                       =      169


Mean Flow Angles:

   Vertical   =   0.0 degrees
   Horizontal =   0.0 degrees

Mean Wind Speed Profile:

   Height    Wind Speed   Horizontal Angle  Vertical Angle  U-comp (X)   V-comp (Y)   W-comp (Z)
     (m)        (m/s)         (degrees)       (degrees)       (m/s)        (m/s)        (m/s)   
   ------    ----------   ----------------  --------------  ----------   ----------   ----------
    172.5       28.48            0.00            0.00         28.48         0.00         0.00
    158.8       28.15            0.00            0.00         28.15         0.00         0.00
    145.0       27.80            0.00            0.00         27.80         0.00         0.00
    131.2       27.41            0.00            0.00         27.41         0.00         0.00
    117.5       26.99            0.00            0.00         26.99         0.00         0.00
    103.8       26.52            0.00            0.00         26.52         0.00         0.00
     90.0       26.00            0.00            0.00         26.00         0.00         0.00
     76.2       25.40            0.00            0.00         25.40         0.00         0.00
     62.5       24.71            0.00            0.00         24.71         0.00         0.00
     48.8       23.86            0.00            0.00         23.86         0.00         0.00
     35.0       22.78            0.00            0.00         22.78         0.00         0.00
     21.2       21.24            0.00            0.00         21.24         0.00         0.00
      7.5       18.36            0.00            0.00         18.36         0.00         0.00


Harvested Random Seeds after Generation of the Random Numbers:

     42362498 Harvested seed # 1
    583267423 Harvested seed # 2


Hub-Height Simulated Turbulence Statistical Summary:

   Type of Wind        Min (m/s)   Mean (m/s)    Max (m/s)  Sigma (m/s)       TI (%)
   ----------------    ---------   ----------    ---------  -----------       ------
   Longitudinal (u)        16.08        26.00        39.01        2.797       10.758
   Lateral (v)             -7.66        -0.00         8.87        2.257        8.681
   Vertical (w)            -5.76         0.00         5.76        1.385        5.325
   U component             16.08        26.00        39.01        2.797       10.758
   V component             -7.66        -0.00         8.87        2.257        8.681
   W component             -5.76         0.00         5.76        1.385        5.325
   Horizontal (U&V)        16.11        26.10        39.18        2.792       10.697
   Total                   16.18        26.14        39.18        2.789       10.672

                       Min Reynolds     Mean Reynolds    Max Reynolds    Correlation
   Product             Stress (m/s)^2   Stress (m/s)^2   Stress (m/s)^2  Coefficient
   ----------------    --------------   --------------   --------------  -----------
   u'w'                    -64.221            -0.041            33.405        -0.011
   u'v'                    -83.968             0.106            59.673         0.017
   v'w'                    -31.120            -0.141            34.144        -0.045


   Friction Velocity (Ustar)  =      0.203 m/s
   Maximum Instantaneous TKE  =     97.825 (m/s)^2
   Maximum Instantaneous CTKE =     43.067 (m/s)^2


Grid Point Variance Summary:

   Y-coord  -82.50  -68.75  -55.00  -41.25  -27.50  -13.75    0.00   13.75   27.50   41.25   55.00   68.75   82.50

   Height   Standard deviation at grid points for the u component:
   172.50    2.894   2.902   2.892   2.914   2.891   2.915   2.933   2.911   2.835   2.842   2.783   2.765   2.784
   158.75    2.931   2.866   2.939   2.888   2.872   2.893   2.976   2.875   2.798   2.745   2.783   2.690   2.764
   145.00    2.945   2.892   2.929   2.888   2.826   2.868   2.850   2.890   2.812   2.784   2.775   2.779   2.775
   131.25    2.948   2.950   2.856   2.879   2.751   2.803   2.821   2.812   2.749   2.780   2.748   2.711   2.779
   117.50    2.960   2.883   2.910   2.802   2.752   2.756   2.827   2.884   2.834   2.761   2.716   2.820   2.802
   103.75    3.018   2.933   2.958   2.858   2.827   2.869   2.817   2.810   2.798   2.816   2.818   2.877   2.795
    90.00    3.007   2.922   2.911   2.887   2.846   2.829   2.797   2.812   2.805   2.759   2.736   2.772   2.826
    76.25    3.008   2.995   2.939   2.849   2.844   2.818   2.802   2.761   2.786   2.726   2.747   2.837   2.770
    62.50    2.957   2.948   2.943   2.943   2.939   2.834   2.795   2.811   2.815   2.771   2.773   2.767   2.696
    48.75    2.984   3.013   2.863   2.840   2.860   2.837   2.847   2.831   2.810   2.827   2.790   2.701   2.666
    35.00    2.919   2.916   2.860   2.881   2.825   2.812   2.810   2.874   2.808   2.799   2.747   2.702   2.722
    21.25    2.875   2.879   2.815   2.848   2.843   2.799   2.827   2.816   2.856   2.832   2.782   2.763   2.759
     7.50    2.833   2.809   2.832   2.867   2.842   2.900   2.848   2.844   2.807   2.837   2.833   2.820   2.783

   Height   Standard deviation at grid points for the v component:
   172.50    2.257   2.257   2.257   2.257   2.257   2.257   2.257   2.257   2.257   2.257   2.257   2.257   2.257
   158.75    2.257   2.257   2.257   2.257   2.257   2.257   2.257   2.257   2.257   2.257   2.257   2.257   2.257
   145.00    2.257   2.257   2.257   2.257   2.257   2.257   2.257   2.257   2.257   2.257   2.257   2.257   2.257
   131.25    2.257   2.257   2.257   2.257   2.257   2.257   2.257   2.257   2.257   2.257   2.257   2.257   2.257
   117.50    2.257   2.257   2.257   2.257   2.257   2.257   2.257   2.257   2.257   2.257   2.257   2.257   2.257
   103.75    2.257   2.257   2.257   2.257   2.257   2.257   2.257   2.257   2.257   2.257   2.257   2.257   2.257
    90.00    2.257   2.257   2.257   2.257   2.257   2.257   2.257   2.257   2.257   2.257   2.257   2.257   2.257
    76.25    2.257   2.257   2.257   2.257   2.257   2.257   2.257   2.257   2.257   2.257   2.257   2.257   2.257
    62.50    2.257   2.257   2.257   2.257   2.257   2.257   2.257   2.257   2.257   2.257   2.257   2.257   2.257
    48.75    2.257   2.257   2.257   2.257   2.257   2.257   2.257   2.257   2.257   2.257   2.257   2.257   2.257
    35.00    2.257   2.257   2.257   2.257   2.257   2.257   2.257   2.257   2.257   2.257   2.257   2.257   2.257
    21.25    2.257   2.257   2.257   2.257   2.257   2.257   2.257   2.257   2.257   2.257   2.257   2.257   2.257
     7.50    2.257   2.257   2.257   2.257   2.257   2.257   2.257   2.257   2.257   2.257   2.257   2.257   2.257

   Height   Standard deviation at grid points for the w component:
   172.50    1.385   1.385   1.385   1.385   1.385   1.385   1.385   1.385   1.385   1.385   1.385   1.385   1.385
   158.75    1.385   1.385   1.385   1.385   1.385   1.385   1.385   1.385   1.385   1.385   1.385   1.385   1.385
   145.00    1.385   1.385   1.385   1.385   1.385   1.385   1.385   1.385   1.385   1.385   1.385   1.385   1.385
   131.25    1.385   1.385   1.385   1.385   1.385   1.385   1.385   1.385   1.385   1.385   1.385   1.385   1.385
   117.50    1.385   1.385   1.385   1.385   1.385   1.385   1.385   1.385   1.385   1.385   1.385   1.385   1.385
   103.75    1.385   1.385   1.385   1.385   1.385   1.385   1.385   1.385   1.385   1.385   1.385   1.385   1.385
    90.00    1.385   1.385   1.385   1.385   1.385   1.385   1.385   1.385   1.385   1.385   1.385   1.385   1.385
    76.25    1.385   1.385   1.385   1.385   1.385   1.385   1.385   1.385   1.385   1.385   1.385   1.385   1.385
    62.50    1.385   1.385   1.385   1.385   1.385   1.385   1.385   1.385   1.385   1.385   1.385   1.385   1.385
    48.75    1.385   1.385   1.385   1.385   1.385   1.385   1.385   1.385   1.385   1.385   1.385   1.385   1.385
    35.00    1.385   1.385   1.385   1.385   1.385   1.385   1.385   1.385   1.385   1.385   1.385   1.385   1.385
    21.25    1.385   1.385   1.385   1.385   1.385   1.385   1.385   1.385   1.385   1.385   1.385   1.385   1.385
     7.50    1.385   1.385   1.385   1.385   1.385   1.385   1.385   1.385   1.385   1.385   1.385   1.385   1.385

   Mean standard deviation across all grid points:
      u component:    2.838 m/s
      v component:    2.257 m/s
      w component:    1.385 m/s


U-component (X) statistics from the interpolated hub point:

   Mean =  26.0000 m/s
   TI   =  10.7579 %


Processing complete.  16.469 CPU seconds used.
