
This summary file was generated by TurbSim (v2.00.07a-bjj, 14-Jun-2016) on 23-Mar-2020 at 09:44:50.


Runtime Options:

        11  Random seed #1
        12  Random seed #2
         F  Output binary HH turbulence parameters?
         F  Output formatted turbulence parameters?
         F  Output AeroDyn HH files?
         T  Output AeroDyn FF files?
         F  Output BLADED FF files?
         F  Output tower data?
         F  Output formatted FF files?
         F  Output coherent turbulence time step file?
         T  Clockwise rotation when looking downwind?
 0 -  NONE  IEC turbulence models scaled to exact specified standard deviation


Turbine/Model Specifications:

        13  Vertical grid-point matrix dimension
        13  Horizontal grid-point matrix dimension
     0.050  Time step [seconds]
  3630.000  Analysis time [seconds]
  3630.000  Usable output time [seconds]
    90.000  Hub height [m]
   165.000  Grid height [m]
   165.000  Grid width [m]
     0.000  Vertical flow angle [degrees]
     0.000  Horizontal flow angle [degrees]


Meteorological Boundary Conditions:

    IECKAI  IEC Kaimal spectral model
         3  IEC standard: IEC 61400-3 Ed. 1: 2006
    11.000  Percent turbulence intensity, IEC 61400-3 Ed. 1: 2006
       NTM  IEC Normal Turbulence Model
       N/A  IEC Extreme Turbulence Model (ETM) "c" parameter [m/s]
       IEC  Wind profile type
    90.000  Reference height [m]
    35.000  Reference wind speed [m/s]
       N/A  Jet height [m]
     0.140  Power law exponent
     0.030  Surface roughness length [m]


Non-IEC Meteorological Boundary Conditions:

       N/A  Site latitude [degrees]
       N/A  Gradient Richardson number
       N/A  Friction or shear velocity [m/s]
       N/A  Mixing layer depth [m]
       N/A  Mean hub u'w' Reynolds stress
       N/A  Mean hub u'v' Reynolds stress
       N/A  Mean hub v'w' Reynolds stress


Spatial Coherence Models:

       IEC  u-component coherence model
      NONE  v-component coherence model
      NONE  w-component coherence model
(   12.000, 0.353E-03)  u-component coherence parameters
                   N/A  v-component coherence parameters
                   N/A  w-component coherence parameters
       N/A  Coherence exponent


You have requested that the following file(s) be generated:

   1_35.bts (AeroDyn/TurbSim full-field wind file)


Turbulence Simulation Scaling Parameter Summary:

   Turbulence model used                            =  IEC Kaimal
   Turbulence characteristic                        =  User-specified
   IEC standard                                     =  IEC 61400-3 Ed. 1: 2006
   Mean wind speed at hub height                    =   35.000 m/s
   Characteristic value of standard deviation       =    3.850 m/s
   Turbulence scale                                 =   42.000 m
   u-component integral scale                       =  340.200 m
   Coherency scale                                  =  340.200 m
   Characteristic value of hub turbulence intensity =   11.000%
   Gradient Richardson number                       =    0.000

   Wind profile type                                =  Power law on rotor disk, logarithmic elsewhere
   Power law exponent                               =    0.140
   Mean shear across rotor disk                     =    0.083 (m/s)/m
   Assumed rotor diameter                           =  165.000 m
   Surface roughness length                         =    0.030 m

   Nyquist frequency of turbulent wind field        =   10.000 Hz

   Number of time steps in the FFT                  =    72600
   Number of time steps output                      =    72600
   Number of points simulated                       =      169


Mean Flow Angles:

   Vertical   =   0.0 degrees
   Horizontal =   0.0 degrees

Mean Wind Speed Profile:

   Height    Wind Speed   Horizontal Angle  Vertical Angle  U-comp (X)   V-comp (Y)   W-comp (Z)
     (m)        (m/s)         (degrees)       (degrees)       (m/s)        (m/s)        (m/s)   
   ------    ----------   ----------------  --------------  ----------   ----------   ----------
    172.5       38.34            0.00            0.00         38.34         0.00         0.00
    158.8       37.89            0.00            0.00         37.89         0.00         0.00
    145.0       37.42            0.00            0.00         37.42         0.00         0.00
    131.2       36.90            0.00            0.00         36.90         0.00         0.00
    117.5       36.33            0.00            0.00         36.33         0.00         0.00
    103.8       35.70            0.00            0.00         35.70         0.00         0.00
     90.0       35.00            0.00            0.00         35.00         0.00         0.00
     76.2       34.20            0.00            0.00         34.20         0.00         0.00
     62.5       33.26            0.00            0.00         33.26         0.00         0.00
     48.8       32.12            0.00            0.00         32.12         0.00         0.00
     35.0       30.67            0.00            0.00         30.67         0.00         0.00
     21.2       28.60            0.00            0.00         28.60         0.00         0.00
      7.5       24.72            0.00            0.00         24.72         0.00         0.00


Harvested Random Seeds after Generation of the Random Numbers:

     42362498 Harvested seed # 1
    583267423 Harvested seed # 2


Hub-Height Simulated Turbulence Statistical Summary:

   Type of Wind        Min (m/s)   Mean (m/s)    Max (m/s)  Sigma (m/s)       TI (%)
   ----------------    ---------   ----------    ---------  -----------       ------
   Longitudinal (u)        20.80        35.00        52.58        3.784       10.812
   Lateral (v)            -10.65        -0.00        12.15        3.031        8.660
   Vertical (w)            -7.77         0.00         7.55        1.851        5.288
   U component             20.80        35.00        52.58        3.784       10.812
   V component            -10.65        -0.00        12.15        3.031        8.660
   W component             -7.77         0.00         7.55        1.851        5.288
   Horizontal (U&V)        20.83        35.13        52.79        3.777       10.750
   Total                   20.93        35.18        52.79        3.773       10.725

                       Min Reynolds     Mean Reynolds    Max Reynolds    Correlation
   Product             Stress (m/s)^2   Stress (m/s)^2   Stress (m/s)^2  Coefficient
   ----------------    --------------   --------------   --------------  -----------
   u'w'                   -114.280            -0.060            62.046        -0.009
   u'v'                   -143.612             0.148           101.233         0.013
   v'w'                    -53.871            -0.232            63.753        -0.041


   Friction Velocity (Ustar)  =      0.246 m/s
   Maximum Instantaneous TKE  =    165.587 (m/s)^2
   Maximum Instantaneous CTKE =     72.874 (m/s)^2


Grid Point Variance Summary:

   Y-coord  -82.50  -68.75  -55.00  -41.25  -27.50  -13.75    0.00   13.75   27.50   41.25   55.00   68.75   82.50

   Height   Standard deviation at grid points for the u component:
   172.50    3.917   3.923   3.901   3.927   3.877   3.901   3.919   3.883   3.800   3.821   3.751   3.740   3.759
   158.75    3.949   3.877   3.955   3.881   3.842   3.863   3.963   3.848   3.759   3.718   3.761   3.653   3.739
   145.00    3.962   3.895   3.929   3.871   3.790   3.835   3.830   3.877   3.794   3.767   3.762   3.759   3.757
   131.25    3.953   3.953   3.849   3.877   3.718   3.763   3.795   3.798   3.714   3.757   3.730   3.692   3.771
   117.50    3.971   3.872   3.902   3.785   3.720   3.721   3.794   3.867   3.824   3.743   3.704   3.820   3.804
   103.75    4.029   3.936   3.949   3.842   3.804   3.848   3.807   3.802   3.795   3.816   3.824   3.893   3.786
    90.00    4.014   3.915   3.894   3.870   3.813   3.805   3.784   3.796   3.799   3.749   3.714   3.762   3.834
    76.25    4.017   3.996   3.925   3.824   3.815   3.787   3.779   3.743   3.758   3.706   3.734   3.844   3.766
    62.50    3.945   3.936   3.925   3.939   3.927   3.811   3.765   3.780   3.787   3.754   3.762   3.742   3.672
    48.75    3.994   4.021   3.839   3.809   3.839   3.810   3.831   3.810   3.785   3.807   3.767   3.661   3.642
    35.00    3.909   3.903   3.835   3.855   3.790   3.790   3.787   3.858   3.789   3.782   3.709   3.655   3.695
    21.25    3.863   3.851   3.778   3.811   3.806   3.766   3.791   3.777   3.827   3.810   3.749   3.727   3.727
     7.50    3.812   3.776   3.804   3.834   3.796   3.861   3.797   3.802   3.762   3.808   3.807   3.807   3.766

   Height   Standard deviation at grid points for the v component:
   172.50    3.031   3.031   3.031   3.031   3.031   3.031   3.031   3.031   3.031   3.031   3.031   3.031   3.031
   158.75    3.031   3.031   3.031   3.031   3.031   3.031   3.031   3.031   3.031   3.031   3.031   3.031   3.031
   145.00    3.031   3.031   3.031   3.031   3.031   3.031   3.031   3.031   3.031   3.031   3.031   3.031   3.031
   131.25    3.031   3.031   3.031   3.031   3.031   3.031   3.031   3.031   3.031   3.031   3.031   3.031   3.031
   117.50    3.031   3.031   3.031   3.031   3.031   3.031   3.031   3.031   3.031   3.031   3.031   3.031   3.031
   103.75    3.031   3.031   3.031   3.031   3.031   3.031   3.031   3.031   3.031   3.031   3.031   3.031   3.031
    90.00    3.031   3.031   3.031   3.031   3.031   3.031   3.031   3.031   3.031   3.031   3.031   3.031   3.031
    76.25    3.031   3.031   3.031   3.031   3.031   3.031   3.031   3.031   3.031   3.031   3.031   3.031   3.031
    62.50    3.031   3.031   3.031   3.031   3.031   3.031   3.031   3.031   3.031   3.031   3.031   3.031   3.031
    48.75    3.031   3.031   3.031   3.031   3.031   3.031   3.031   3.031   3.031   3.031   3.031   3.031   3.031
    35.00    3.031   3.031   3.031   3.031   3.031   3.031   3.031   3.031   3.031   3.031   3.031   3.031   3.031
    21.25    3.031   3.031   3.031   3.031   3.031   3.031   3.031   3.031   3.031   3.031   3.031   3.031   3.031
     7.50    3.031   3.031   3.031   3.031   3.031   3.031   3.031   3.031   3.031   3.031   3.031   3.031   3.031

   Height   Standard deviation at grid points for the w component:
   172.50    1.851   1.851   1.851   1.851   1.851   1.851   1.851   1.851   1.851   1.851   1.851   1.851   1.851
   158.75    1.851   1.851   1.851   1.851   1.851   1.851   1.851   1.851   1.851   1.851   1.851   1.851   1.851
   145.00    1.851   1.851   1.851   1.851   1.851   1.851   1.851   1.851   1.851   1.851   1.851   1.851   1.851
   131.25    1.851   1.851   1.851   1.851   1.851   1.851   1.851   1.851   1.851   1.851   1.851   1.851   1.851
   117.50    1.851   1.851   1.851   1.851   1.851   1.851   1.851   1.851   1.851   1.851   1.851   1.851   1.851
   103.75    1.851   1.851   1.851   1.851   1.851   1.851   1.851   1.851   1.851   1.851   1.851   1.851   1.851
    90.00    1.851   1.851   1.851   1.851   1.851   1.851   1.851   1.851   1.851   1.851   1.851   1.851   1.851
    76.25    1.851   1.851   1.851   1.851   1.851   1.851   1.851   1.851   1.851   1.851   1.851   1.851   1.851
    62.50    1.851   1.851   1.851   1.851   1.851   1.851   1.851   1.851   1.851   1.851   1.851   1.851   1.851
    48.75    1.851   1.851   1.851   1.851   1.851   1.851   1.851   1.851   1.851   1.851   1.851   1.851   1.851
    35.00    1.851   1.851   1.851   1.851   1.851   1.851   1.851   1.851   1.851   1.851   1.851   1.851   1.851
    21.25    1.851   1.851   1.851   1.851   1.851   1.851   1.851   1.851   1.851   1.851   1.851   1.851   1.851
     7.50    1.851   1.851   1.851   1.851   1.851   1.851   1.851   1.851   1.851   1.851   1.851   1.851   1.851

   Mean standard deviation across all grid points:
      u component:    3.820 m/s
      v component:    3.031 m/s
      w component:    1.851 m/s


U-component (X) statistics from the interpolated hub point:

   Mean =  35.0000 m/s
   TI   =  10.8124 %


Processing complete.  16.531 CPU seconds used.
