
This summary file was generated by TurbSim (v2.00.07a-bjj, 14-Jun-2016) on 23-Mar-2020 at 09:47:30.


Runtime Options:

        11  Random seed #1
        12  Random seed #2
         F  Output binary HH turbulence parameters?
         F  Output formatted turbulence parameters?
         F  Output AeroDyn HH files?
         T  Output AeroDyn FF files?
         F  Output BLADED FF files?
         F  Output tower data?
         F  Output formatted FF files?
         F  Output coherent turbulence time step file?
         T  Clockwise rotation when looking downwind?
 0 -  NONE  IEC turbulence models scaled to exact specified standard deviation


Turbine/Model Specifications:

        13  Vertical grid-point matrix dimension
        13  Horizontal grid-point matrix dimension
     0.050  Time step [seconds]
  3630.000  Analysis time [seconds]
  3630.000  Usable output time [seconds]
    90.000  Hub height [m]
   165.000  Grid height [m]
   165.000  Grid width [m]
     0.000  Vertical flow angle [degrees]
     0.000  Horizontal flow angle [degrees]


Meteorological Boundary Conditions:

    IECKAI  IEC Kaimal spectral model
         3  IEC standard: IEC 61400-3 Ed. 1: 2006
    11.000  Percent turbulence intensity, IEC 61400-3 Ed. 1: 2006
       NTM  IEC Normal Turbulence Model
       N/A  IEC Extreme Turbulence Model (ETM) "c" parameter [m/s]
       IEC  Wind profile type
    90.000  Reference height [m]
    65.000  Reference wind speed [m/s]
       N/A  Jet height [m]
     0.140  Power law exponent
     0.030  Surface roughness length [m]


Non-IEC Meteorological Boundary Conditions:

       N/A  Site latitude [degrees]
       N/A  Gradient Richardson number
       N/A  Friction or shear velocity [m/s]
       N/A  Mixing layer depth [m]
       N/A  Mean hub u'w' Reynolds stress
       N/A  Mean hub u'v' Reynolds stress
       N/A  Mean hub v'w' Reynolds stress


Spatial Coherence Models:

       IEC  u-component coherence model
      NONE  v-component coherence model
      NONE  w-component coherence model
(   12.000, 0.353E-03)  u-component coherence parameters
                   N/A  v-component coherence parameters
                   N/A  w-component coherence parameters
       N/A  Coherence exponent


You have requested that the following file(s) be generated:

   1_65.bts (AeroDyn/TurbSim full-field wind file)


Turbulence Simulation Scaling Parameter Summary:

   Turbulence model used                            =  IEC Kaimal
   Turbulence characteristic                        =  User-specified
   IEC standard                                     =  IEC 61400-3 Ed. 1: 2006
   Mean wind speed at hub height                    =   65.000 m/s
   Characteristic value of standard deviation       =    7.150 m/s
   Turbulence scale                                 =   42.000 m
   u-component integral scale                       =  340.200 m
   Coherency scale                                  =  340.200 m
   Characteristic value of hub turbulence intensity =   11.000%
   Gradient Richardson number                       =    0.000

   Wind profile type                                =  Power law on rotor disk, logarithmic elsewhere
   Power law exponent                               =    0.140
   Mean shear across rotor disk                     =    0.153 (m/s)/m
   Assumed rotor diameter                           =  165.000 m
   Surface roughness length                         =    0.030 m

   Nyquist frequency of turbulent wind field        =   10.000 Hz

   Number of time steps in the FFT                  =    72600
   Number of time steps output                      =    72600
   Number of points simulated                       =      169


Mean Flow Angles:

   Vertical   =   0.0 degrees
   Horizontal =   0.0 degrees

Mean Wind Speed Profile:

   Height    Wind Speed   Horizontal Angle  Vertical Angle  U-comp (X)   V-comp (Y)   W-comp (Z)
     (m)        (m/s)         (degrees)       (degrees)       (m/s)        (m/s)        (m/s)   
   ------    ----------   ----------------  --------------  ----------   ----------   ----------
    172.5       71.20            0.00            0.00         71.20         0.00         0.00
    158.8       70.38            0.00            0.00         70.38         0.00         0.00
    145.0       69.49            0.00            0.00         69.49         0.00         0.00
    131.2       68.53            0.00            0.00         68.53         0.00         0.00
    117.5       67.47            0.00            0.00         67.47         0.00         0.00
    103.8       66.31            0.00            0.00         66.31         0.00         0.00
     90.0       65.00            0.00            0.00         65.00         0.00         0.00
     76.2       63.51            0.00            0.00         63.51         0.00         0.00
     62.5       61.77            0.00            0.00         61.77         0.00         0.00
     48.8       59.65            0.00            0.00         59.65         0.00         0.00
     35.0       56.95            0.00            0.00         56.95         0.00         0.00
     21.2       53.11            0.00            0.00         53.11         0.00         0.00
      7.5       45.90            0.00            0.00         45.90         0.00         0.00


Harvested Random Seeds after Generation of the Random Numbers:

     42362498 Harvested seed # 1
    583267423 Harvested seed # 2


Hub-Height Simulated Turbulence Statistical Summary:

   Type of Wind        Min (m/s)   Mean (m/s)    Max (m/s)  Sigma (m/s)       TI (%)
   ----------------    ---------   ----------    ---------  -----------       ------
   Longitudinal (u)        37.52        65.00        96.31        7.073       10.882
   Lateral (v)            -21.81        -0.00        23.05        5.588        8.597
   Vertical (w)           -14.47         0.00        13.84        3.368        5.181
   U component             37.52        65.00        96.31        7.073       10.882
   V component            -21.81        -0.00        23.05        5.588        8.597
   W component            -14.47         0.00        13.84        3.368        5.181
   Horizontal (U&V)        37.56        65.24        96.62        7.056       10.816
   Total                   37.76        65.33        96.62        7.050       10.791

                       Min Reynolds     Mean Reynolds    Max Reynolds    Correlation
   Product             Stress (m/s)^2   Stress (m/s)^2   Stress (m/s)^2  Coefficient
   ----------------    --------------   --------------   --------------  -----------
   u'w'                   -345.133            -0.108           198.815        -0.005
   u'v'                   -397.332             0.332           369.024         0.008
   v'w'                   -161.163            -0.625           226.296        -0.033


   Friction Velocity (Ustar)  =      0.328 m/s
   Maximum Instantaneous TKE  =    520.689 (m/s)^2
   Maximum Instantaneous CTKE =    200.785 (m/s)^2


Grid Point Variance Summary:

   Y-coord  -82.50  -68.75  -55.00  -41.25  -27.50  -13.75    0.00   13.75   27.50   41.25   55.00   68.75   82.50

   Height   Standard deviation at grid points for the u component:
   172.50    7.276   7.276   7.230   7.262   7.140   7.161   7.186   7.126   7.018   7.077   6.970   6.989   7.008
   158.75    7.292   7.202   7.293   7.155   7.071   7.086   7.231   7.096   6.986   6.973   7.021   6.883   6.982
   145.00    7.298   7.180   7.214   7.124   7.013   7.063   7.097   7.151   7.071   7.055   7.032   7.012   7.025
   131.25    7.238   7.234   7.120   7.169   6.950   6.984   7.053   7.079   6.949   7.010   6.997   6.969   7.073
   117.50    7.275   7.130   7.164   7.034   6.958   6.956   7.040   7.162   7.125   7.016   6.999   7.130   7.123
   103.75    7.343   7.218   7.204   7.093   7.058   7.101   7.104   7.118   7.116   7.139   7.159   7.251   7.075
    90.00    7.318   7.192   7.144   7.136   7.041   7.062   7.073   7.073   7.091   7.033   6.979   7.056   7.159
    76.25    7.334   7.298   7.181   7.070   7.050   7.019   7.023   6.988   6.973   6.957   7.025   7.160   7.067
    62.50    7.223   7.207   7.177   7.225   7.185   7.060   6.994   6.998   7.010   6.999   7.047   6.976   6.922
    48.75    7.322   7.344   7.085   7.015   7.078   7.030   7.080   7.038   7.008   7.047   7.000   6.861   6.912
    35.00    7.183   7.169   7.071   7.079   6.998   7.023   7.014   7.098   7.019   7.038   6.922   6.854   6.939
    21.25    7.134   7.076   6.987   7.014   6.998   6.969   6.989   6.970   7.039   7.046   6.960   6.944   6.963
     7.50    7.062   6.997   7.028   7.047   6.971   7.038   6.945   6.975   6.934   7.013   7.039   7.084   7.033

   Height   Standard deviation at grid points for the v component:
   172.50    5.588   5.588   5.588   5.588   5.588   5.588   5.588   5.588   5.588   5.588   5.588   5.588   5.588
   158.75    5.588   5.588   5.588   5.588   5.588   5.588   5.588   5.588   5.588   5.588   5.588   5.588   5.588
   145.00    5.588   5.588   5.588   5.588   5.588   5.588   5.588   5.588   5.588   5.588   5.588   5.588   5.588
   131.25    5.588   5.588   5.588   5.588   5.588   5.588   5.588   5.588   5.588   5.588   5.588   5.588   5.588
   117.50    5.588   5.588   5.588   5.588   5.588   5.588   5.588   5.588   5.588   5.588   5.588   5.588   5.588
   103.75    5.588   5.588   5.588   5.588   5.588   5.588   5.588   5.588   5.588   5.588   5.588   5.588   5.588
    90.00    5.588   5.588   5.588   5.588   5.588   5.588   5.588   5.588   5.588   5.588   5.588   5.588   5.588
    76.25    5.588   5.588   5.588   5.588   5.588   5.588   5.588   5.588   5.588   5.588   5.588   5.588   5.588
    62.50    5.588   5.588   5.588   5.588   5.588   5.588   5.588   5.588   5.588   5.588   5.588   5.588   5.588
    48.75    5.588   5.588   5.588   5.588   5.588   5.588   5.588   5.588   5.588   5.588   5.588   5.588   5.588
    35.00    5.588   5.588   5.588   5.588   5.588   5.588   5.588   5.588   5.588   5.588   5.588   5.588   5.588
    21.25    5.588   5.588   5.588   5.588   5.588   5.588   5.588   5.588   5.588   5.588   5.588   5.588   5.588
     7.50    5.588   5.588   5.588   5.588   5.588   5.588   5.588   5.588   5.588   5.588   5.588   5.588   5.588

   Height   Standard deviation at grid points for the w component:
   172.50    3.368   3.368   3.368   3.368   3.368   3.368   3.368   3.368   3.368   3.368   3.368   3.368   3.368
   158.75    3.368   3.368   3.368   3.368   3.368   3.368   3.368   3.368   3.368   3.368   3.368   3.368   3.368
   145.00    3.368   3.368   3.368   3.368   3.368   3.368   3.368   3.368   3.368   3.368   3.368   3.368   3.368
   131.25    3.368   3.368   3.368   3.368   3.368   3.368   3.368   3.368   3.368   3.368   3.368   3.368   3.368
   117.50    3.368   3.368   3.368   3.368   3.368   3.368   3.368   3.368   3.368   3.368   3.368   3.368   3.368
   103.75    3.368   3.368   3.368   3.368   3.368   3.368   3.368   3.368   3.368   3.368   3.368   3.368   3.368
    90.00    3.368   3.368   3.368   3.368   3.368   3.368   3.368   3.368   3.368   3.368   3.368   3.368   3.368
    76.25    3.368   3.368   3.368   3.368   3.368   3.368   3.368   3.368   3.368   3.368   3.368   3.368   3.368
    62.50    3.368   3.368   3.368   3.368   3.368   3.368   3.368   3.368   3.368   3.368   3.368   3.368   3.368
    48.75    3.368   3.368   3.368   3.368   3.368   3.368   3.368   3.368   3.368   3.368   3.368   3.368   3.368
    35.00    3.368   3.368   3.368   3.368   3.368   3.368   3.368   3.368   3.368   3.368   3.368   3.368   3.368
    21.25    3.368   3.368   3.368   3.368   3.368   3.368   3.368   3.368   3.368   3.368   3.368   3.368   3.368
     7.50    3.368   3.368   3.368   3.368   3.368   3.368   3.368   3.368   3.368   3.368   3.368   3.368   3.368

   Mean standard deviation across all grid points:
      u component:    7.078 m/s
      v component:    5.588 m/s
      w component:    3.368 m/s


U-component (X) statistics from the interpolated hub point:

   Mean =  65.0000 m/s
   TI   =  10.8816 %


Processing complete.  16.703 CPU seconds used.
