
This summary file was generated by TurbSim (v2.00.07a-bjj, 14-Jun-2016) on 23-Mar-2020 at 09:48:13.


Runtime Options:

        11  Random seed #1
        12  Random seed #2
         F  Output binary HH turbulence parameters?
         F  Output formatted turbulence parameters?
         F  Output AeroDyn HH files?
         T  Output AeroDyn FF files?
         F  Output BLADED FF files?
         F  Output tower data?
         F  Output formatted FF files?
         F  Output coherent turbulence time step file?
         T  Clockwise rotation when looking downwind?
 0 -  NONE  IEC turbulence models scaled to exact specified standard deviation


Turbine/Model Specifications:

        13  Vertical grid-point matrix dimension
        13  Horizontal grid-point matrix dimension
     0.050  Time step [seconds]
  3630.000  Analysis time [seconds]
  3630.000  Usable output time [seconds]
    90.000  Hub height [m]
   165.000  Grid height [m]
   165.000  Grid width [m]
     0.000  Vertical flow angle [degrees]
     0.000  Horizontal flow angle [degrees]


Meteorological Boundary Conditions:

    IECKAI  IEC Kaimal spectral model
         3  IEC standard: IEC 61400-3 Ed. 1: 2006
    11.000  Percent turbulence intensity, IEC 61400-3 Ed. 1: 2006
       NTM  IEC Normal Turbulence Model
       N/A  IEC Extreme Turbulence Model (ETM) "c" parameter [m/s]
       IEC  Wind profile type
    90.000  Reference height [m]
    70.000  Reference wind speed [m/s]
       N/A  Jet height [m]
     0.140  Power law exponent
     0.030  Surface roughness length [m]


Non-IEC Meteorological Boundary Conditions:

       N/A  Site latitude [degrees]
       N/A  Gradient Richardson number
       N/A  Friction or shear velocity [m/s]
       N/A  Mixing layer depth [m]
       N/A  Mean hub u'w' Reynolds stress
       N/A  Mean hub u'v' Reynolds stress
       N/A  Mean hub v'w' Reynolds stress


Spatial Coherence Models:

       IEC  u-component coherence model
      NONE  v-component coherence model
      NONE  w-component coherence model
(   12.000, 0.353E-03)  u-component coherence parameters
                   N/A  v-component coherence parameters
                   N/A  w-component coherence parameters
       N/A  Coherence exponent


You have requested that the following file(s) be generated:

   1_70.bts (AeroDyn/TurbSim full-field wind file)


Turbulence Simulation Scaling Parameter Summary:

   Turbulence model used                            =  IEC Kaimal
   Turbulence characteristic                        =  User-specified
   IEC standard                                     =  IEC 61400-3 Ed. 1: 2006
   Mean wind speed at hub height                    =   70.000 m/s
   Characteristic value of standard deviation       =    7.700 m/s
   Turbulence scale                                 =   42.000 m
   u-component integral scale                       =  340.200 m
   Coherency scale                                  =  340.200 m
   Characteristic value of hub turbulence intensity =   11.000%
   Gradient Richardson number                       =    0.000

   Wind profile type                                =  Power law on rotor disk, logarithmic elsewhere
   Power law exponent                               =    0.140
   Mean shear across rotor disk                     =    0.165 (m/s)/m
   Assumed rotor diameter                           =  165.000 m
   Surface roughness length                         =    0.030 m

   Nyquist frequency of turbulent wind field        =   10.000 Hz

   Number of time steps in the FFT                  =    72600
   Number of time steps output                      =    72600
   Number of points simulated                       =      169


Mean Flow Angles:

   Vertical   =   0.0 degrees
   Horizontal =   0.0 degrees

Mean Wind Speed Profile:

   Height    Wind Speed   Horizontal Angle  Vertical Angle  U-comp (X)   V-comp (Y)   W-comp (Z)
     (m)        (m/s)         (degrees)       (degrees)       (m/s)        (m/s)        (m/s)   
   ------    ----------   ----------------  --------------  ----------   ----------   ----------
    172.5       76.68            0.00            0.00         76.68         0.00         0.00
    158.8       75.79            0.00            0.00         75.79         0.00         0.00
    145.0       74.83            0.00            0.00         74.83         0.00         0.00
    131.2       73.80            0.00            0.00         73.80         0.00         0.00
    117.5       72.66            0.00            0.00         72.66         0.00         0.00
    103.8       71.41            0.00            0.00         71.41         0.00         0.00
     90.0       70.00            0.00            0.00         70.00         0.00         0.00
     76.2       68.39            0.00            0.00         68.39         0.00         0.00
     62.5       66.52            0.00            0.00         66.52         0.00         0.00
     48.8       64.24            0.00            0.00         64.24         0.00         0.00
     35.0       61.33            0.00            0.00         61.33         0.00         0.00
     21.2       57.19            0.00            0.00         57.19         0.00         0.00
      7.5       49.43            0.00            0.00         49.43         0.00         0.00


Harvested Random Seeds after Generation of the Random Numbers:

     42362498 Harvested seed # 1
    583267423 Harvested seed # 2


Hub-Height Simulated Turbulence Statistical Summary:

   Type of Wind        Min (m/s)   Mean (m/s)    Max (m/s)  Sigma (m/s)       TI (%)
   ----------------    ---------   ----------    ---------  -----------       ------
   Longitudinal (u)        40.45        70.00       103.45        7.620       10.885
   Lateral (v)            -23.68        -0.00        24.85        6.011        8.587
   Vertical (w)           -15.58         0.00        14.87        3.616        5.166
   U component             40.45        70.00       103.45        7.620       10.885
   V component            -23.68        -0.00        24.85        6.011        8.587
   W component            -15.58         0.00        14.87        3.616        5.166
   Horizontal (U&V)        40.49        70.26       103.78        7.601       10.819
   Total                   40.70        70.35       103.78        7.594       10.794

                       Min Reynolds     Mean Reynolds    Max Reynolds    Correlation
   Product             Stress (m/s)^2   Stress (m/s)^2   Stress (m/s)^2  Coefficient
   ----------------    --------------   --------------   --------------  -----------
   u'w'                   -390.831            -0.115           226.344        -0.004
   u'v'                   -445.918             0.366           428.524         0.008
   v'w'                   -183.082            -0.701           262.353        -0.032


   Friction Velocity (Ustar)  =      0.339 m/s
   Maximum Instantaneous TKE  =    594.078 (m/s)^2
   Maximum Instantaneous CTKE =    228.670 (m/s)^2


Grid Point Variance Summary:

   Y-coord  -82.50  -68.75  -55.00  -41.25  -27.50  -13.75    0.00   13.75   27.50   41.25   55.00   68.75   82.50

   Height   Standard deviation at grid points for the u component:
   172.50    7.828   7.827   7.779   7.812   7.680   7.701   7.728   7.666   7.555   7.618   7.507   7.530   7.548
   158.75    7.842   7.750   7.843   7.695   7.608   7.622   7.774   7.638   7.527   7.516   7.564   7.422   7.521
   145.00    7.847   7.721   7.756   7.663   7.549   7.599   7.640   7.695   7.617   7.602   7.575   7.552   7.569
   131.25    7.779   7.774   7.661   7.714   7.487   7.521   7.595   7.624   7.488   7.551   7.539   7.513   7.622
   117.50    7.819   7.670   7.704   7.572   7.497   7.495   7.582   7.711   7.674   7.559   7.545   7.677   7.672
   103.75    7.890   7.760   7.743   7.632   7.599   7.642   7.652   7.669   7.668   7.690   7.710   7.806   7.619
    90.00    7.865   7.736   7.684   7.678   7.579   7.604   7.620   7.619   7.637   7.578   7.522   7.603   7.707
    76.25    7.882   7.844   7.721   7.609   7.588   7.557   7.562   7.526   7.507   7.497   7.572   7.708   7.614
    62.50    7.768   7.750   7.717   7.769   7.724   7.598   7.531   7.534   7.545   7.536   7.592   7.513   7.464
    48.75    7.872   7.894   7.627   7.547   7.616   7.564   7.619   7.573   7.543   7.585   7.536   7.394   7.457
    35.00    7.725   7.711   7.610   7.615   7.532   7.559   7.548   7.633   7.554   7.578   7.457   7.389   7.479
    21.25    7.676   7.612   7.522   7.547   7.529   7.500   7.521   7.501   7.572   7.582   7.494   7.479   7.502
     7.50    7.602   7.533   7.564   7.582   7.500   7.566   7.469   7.502   7.462   7.545   7.575   7.628   7.575

   Height   Standard deviation at grid points for the v component:
   172.50    6.011   6.011   6.011   6.011   6.011   6.011   6.011   6.011   6.011   6.011   6.011   6.011   6.011
   158.75    6.011   6.011   6.011   6.011   6.011   6.011   6.011   6.011   6.011   6.011   6.011   6.011   6.011
   145.00    6.011   6.011   6.011   6.011   6.011   6.011   6.011   6.011   6.011   6.011   6.011   6.011   6.011
   131.25    6.011   6.011   6.011   6.011   6.011   6.011   6.011   6.011   6.011   6.011   6.011   6.011   6.011
   117.50    6.011   6.011   6.011   6.011   6.011   6.011   6.011   6.011   6.011   6.011   6.011   6.011   6.011
   103.75    6.011   6.011   6.011   6.011   6.011   6.011   6.011   6.011   6.011   6.011   6.011   6.011   6.011
    90.00    6.011   6.011   6.011   6.011   6.011   6.011   6.011   6.011   6.011   6.011   6.011   6.011   6.011
    76.25    6.011   6.011   6.011   6.011   6.011   6.011   6.011   6.011   6.011   6.011   6.011   6.011   6.011
    62.50    6.011   6.011   6.011   6.011   6.011   6.011   6.011   6.011   6.011   6.011   6.011   6.011   6.011
    48.75    6.011   6.011   6.011   6.011   6.011   6.011   6.011   6.011   6.011   6.011   6.011   6.011   6.011
    35.00    6.011   6.011   6.011   6.011   6.011   6.011   6.011   6.011   6.011   6.011   6.011   6.011   6.011
    21.25    6.011   6.011   6.011   6.011   6.011   6.011   6.011   6.011   6.011   6.011   6.011   6.011   6.011
     7.50    6.011   6.011   6.011   6.011   6.011   6.011   6.011   6.011   6.011   6.011   6.011   6.011   6.011

   Height   Standard deviation at grid points for the w component:
   172.50    3.616   3.616   3.616   3.616   3.616   3.616   3.616   3.616   3.616   3.616   3.616   3.616   3.616
   158.75    3.616   3.616   3.616   3.616   3.616   3.616   3.616   3.616   3.616   3.616   3.616   3.616   3.616
   145.00    3.616   3.616   3.616   3.616   3.616   3.616   3.616   3.616   3.616   3.616   3.616   3.616   3.616
   131.25    3.616   3.616   3.616   3.616   3.616   3.616   3.616   3.616   3.616   3.616   3.616   3.616   3.616
   117.50    3.616   3.616   3.616   3.616   3.616   3.616   3.616   3.616   3.616   3.616   3.616   3.616   3.616
   103.75    3.616   3.616   3.616   3.616   3.616   3.616   3.616   3.616   3.616   3.616   3.616   3.616   3.616
    90.00    3.616   3.616   3.616   3.616   3.616   3.616   3.616   3.616   3.616   3.616   3.616   3.616   3.616
    76.25    3.616   3.616   3.616   3.616   3.616   3.616   3.616   3.616   3.616   3.616   3.616   3.616   3.616
    62.50    3.616   3.616   3.616   3.616   3.616   3.616   3.616   3.616   3.616   3.616   3.616   3.616   3.616
    48.75    3.616   3.616   3.616   3.616   3.616   3.616   3.616   3.616   3.616   3.616   3.616   3.616   3.616
    35.00    3.616   3.616   3.616   3.616   3.616   3.616   3.616   3.616   3.616   3.616   3.616   3.616   3.616
    21.25    3.616   3.616   3.616   3.616   3.616   3.616   3.616   3.616   3.616   3.616   3.616   3.616   3.616
     7.50    3.616   3.616   3.616   3.616   3.616   3.616   3.616   3.616   3.616   3.616   3.616   3.616   3.616

   Mean standard deviation across all grid points:
      u component:    7.619 m/s
      v component:    6.011 m/s
      w component:    3.616 m/s


U-component (X) statistics from the interpolated hub point:

   Mean =  70.0000 m/s
   TI   =  10.8851 %


Processing complete.  16.047 CPU seconds used.
