
This summary file was generated by TurbSim (v2.00.07a-bjj, 14-Jun-2016) on 23-Mar-2020 at 09:48:58.


Runtime Options:

        11  Random seed #1
        12  Random seed #2
         F  Output binary HH turbulence parameters?
         F  Output formatted turbulence parameters?
         F  Output AeroDyn HH files?
         T  Output AeroDyn FF files?
         F  Output BLADED FF files?
         F  Output tower data?
         F  Output formatted FF files?
         F  Output coherent turbulence time step file?
         T  Clockwise rotation when looking downwind?
 0 -  NONE  IEC turbulence models scaled to exact specified standard deviation


Turbine/Model Specifications:

        13  Vertical grid-point matrix dimension
        13  Horizontal grid-point matrix dimension
     0.050  Time step [seconds]
  3630.000  Analysis time [seconds]
  3630.000  Usable output time [seconds]
    90.000  Hub height [m]
   165.000  Grid height [m]
   165.000  Grid width [m]
     0.000  Vertical flow angle [degrees]
     0.000  Horizontal flow angle [degrees]


Meteorological Boundary Conditions:

    IECKAI  IEC Kaimal spectral model
         3  IEC standard: IEC 61400-3 Ed. 1: 2006
    11.000  Percent turbulence intensity, IEC 61400-3 Ed. 1: 2006
       NTM  IEC Normal Turbulence Model
       N/A  IEC Extreme Turbulence Model (ETM) "c" parameter [m/s]
       IEC  Wind profile type
    90.000  Reference height [m]
    80.000  Reference wind speed [m/s]
       N/A  Jet height [m]
     0.140  Power law exponent
     0.030  Surface roughness length [m]


Non-IEC Meteorological Boundary Conditions:

       N/A  Site latitude [degrees]
       N/A  Gradient Richardson number
       N/A  Friction or shear velocity [m/s]
       N/A  Mixing layer depth [m]
       N/A  Mean hub u'w' Reynolds stress
       N/A  Mean hub u'v' Reynolds stress
       N/A  Mean hub v'w' Reynolds stress


Spatial Coherence Models:

       IEC  u-component coherence model
      NONE  v-component coherence model
      NONE  w-component coherence model
(   12.000, 0.353E-03)  u-component coherence parameters
                   N/A  v-component coherence parameters
                   N/A  w-component coherence parameters
       N/A  Coherence exponent


You have requested that the following file(s) be generated:

   1_80.bts (AeroDyn/TurbSim full-field wind file)


Turbulence Simulation Scaling Parameter Summary:

   Turbulence model used                            =  IEC Kaimal
   Turbulence characteristic                        =  User-specified
   IEC standard                                     =  IEC 61400-3 Ed. 1: 2006
   Mean wind speed at hub height                    =   80.000 m/s
   Characteristic value of standard deviation       =    8.800 m/s
   Turbulence scale                                 =   42.000 m
   u-component integral scale                       =  340.200 m
   Coherency scale                                  =  340.200 m
   Characteristic value of hub turbulence intensity =   11.000%
   Gradient Richardson number                       =    0.000

   Wind profile type                                =  Power law on rotor disk, logarithmic elsewhere
   Power law exponent                               =    0.140
   Mean shear across rotor disk                     =    0.189 (m/s)/m
   Assumed rotor diameter                           =  165.000 m
   Surface roughness length                         =    0.030 m

   Nyquist frequency of turbulent wind field        =   10.000 Hz

   Number of time steps in the FFT                  =    72600
   Number of time steps output                      =    72600
   Number of points simulated                       =      169


Mean Flow Angles:

   Vertical   =   0.0 degrees
   Horizontal =   0.0 degrees

Mean Wind Speed Profile:

   Height    Wind Speed   Horizontal Angle  Vertical Angle  U-comp (X)   V-comp (Y)   W-comp (Z)
     (m)        (m/s)         (degrees)       (degrees)       (m/s)        (m/s)        (m/s)   
   ------    ----------   ----------------  --------------  ----------   ----------   ----------
    172.5       87.63            0.00            0.00         87.63         0.00         0.00
    158.8       86.62            0.00            0.00         86.62         0.00         0.00
    145.0       85.52            0.00            0.00         85.52         0.00         0.00
    131.2       84.34            0.00            0.00         84.34         0.00         0.00
    117.5       83.04            0.00            0.00         83.04         0.00         0.00
    103.8       81.61            0.00            0.00         81.61         0.00         0.00
     90.0       80.00            0.00            0.00         80.00         0.00         0.00
     76.2       78.16            0.00            0.00         78.16         0.00         0.00
     62.5       76.02            0.00            0.00         76.02         0.00         0.00
     48.8       73.42            0.00            0.00         73.42         0.00         0.00
     35.0       70.09            0.00            0.00         70.09         0.00         0.00
     21.2       65.36            0.00            0.00         65.36         0.00         0.00
      7.5       56.49            0.00            0.00         56.49         0.00         0.00


Harvested Random Seeds after Generation of the Random Numbers:

     42362498 Harvested seed # 1
    583267423 Harvested seed # 2


Hub-Height Simulated Turbulence Statistical Summary:

   Type of Wind        Min (m/s)   Mean (m/s)    Max (m/s)  Sigma (m/s)       TI (%)
   ----------------    ---------   ----------    ---------  -----------       ------
   Longitudinal (u)        46.41        80.00       117.65        8.711       10.889
   Lateral (v)            -27.41        -0.00        28.42        6.854        8.568
   Vertical (w)           -17.78         0.00        16.91        4.108        5.135
   U component             46.41        80.00       117.65        8.711       10.889
   V component            -27.41        -0.00        28.42        6.854        8.568
   W component            -17.78         0.00        16.91        4.108        5.135
   Horizontal (U&V)        46.45        80.30       118.02        8.690       10.822
   Total                   46.70        80.40       118.02        8.681       10.798

                       Min Reynolds     Mean Reynolds    Max Reynolds    Correlation
   Product             Stress (m/s)^2   Stress (m/s)^2   Stress (m/s)^2  Coefficient
   ----------------    --------------   --------------   --------------  -----------
   u'w'                   -487.243            -0.129           290.517        -0.004
   u'v'                   -547.830             0.434           559.805         0.007
   v'w'                   -230.104            -0.860           341.612        -0.031


   Friction Velocity (Ustar)  =      0.359 m/s
   Maximum Instantaneous TKE  =    752.164 (m/s)^2
   Maximum Instantaneous CTKE =    297.927 (m/s)^2


Grid Point Variance Summary:

   Y-coord  -82.50  -68.75  -55.00  -41.25  -27.50  -13.75    0.00   13.75   27.50   41.25   55.00   68.75   82.50

   Height   Standard deviation at grid points for the u component:
   172.50    8.927   8.926   8.872   8.907   8.758   8.779   8.810   8.747   8.629   8.701   8.581   8.610   8.629
   158.75    8.938   8.841   8.937   8.773   8.680   8.692   8.856   8.722   8.607   8.599   8.647   8.499   8.597
   145.00    8.943   8.799   8.836   8.738   8.622   8.670   8.724   8.779   8.705   8.694   8.657   8.629   8.655
   131.25    8.857   8.852   8.739   8.800   8.561   8.594   8.679   8.712   8.566   8.630   8.621   8.600   8.718
   117.50    8.905   8.748   8.782   8.647   8.576   8.574   8.665   8.809   8.769   8.646   8.635   8.770   8.767
   103.75    8.981   8.842   8.818   8.708   8.682   8.722   8.744   8.770   8.769   8.789   8.810   8.911   8.706
    90.00    8.955   8.821   8.762   8.762   8.654   8.687   8.711   8.709   8.727   8.664   8.608   8.694   8.801
    76.25    8.976   8.935   8.800   8.687   8.661   8.632   8.638   8.601   8.573   8.576   8.664   8.799   8.706
    62.50    8.856   8.834   8.797   8.856   8.799   8.674   8.604   8.604   8.615   8.609   8.680   8.586   8.545
    48.75    8.969   8.991   8.708   8.612   8.689   8.630   8.693   8.642   8.612   8.659   8.609   8.460   8.544
    35.00    8.808   8.794   8.685   8.685   8.600   8.629   8.616   8.703   8.621   8.655   8.529   8.459   8.556
    21.25    8.760   8.684   8.590   8.613   8.592   8.561   8.582   8.564   8.637   8.654   8.560   8.549   8.579
     7.50    8.680   8.606   8.635   8.650   8.559   8.622   8.516   8.557   8.517   8.606   8.645   8.712   8.656

   Height   Standard deviation at grid points for the v component:
   172.50    6.854   6.854   6.854   6.854   6.854   6.854   6.854   6.854   6.854   6.854   6.854   6.854   6.854
   158.75    6.854   6.854   6.854   6.854   6.854   6.854   6.854   6.854   6.854   6.854   6.854   6.854   6.854
   145.00    6.854   6.854   6.854   6.854   6.854   6.854   6.854   6.854   6.854   6.854   6.854   6.854   6.854
   131.25    6.854   6.854   6.854   6.854   6.854   6.854   6.854   6.854   6.854   6.854   6.854   6.854   6.854
   117.50    6.854   6.854   6.854   6.854   6.854   6.854   6.854   6.854   6.854   6.854   6.854   6.854   6.854
   103.75    6.854   6.854   6.854   6.854   6.854   6.854   6.854   6.854   6.854   6.854   6.854   6.854   6.854
    90.00    6.854   6.854   6.854   6.854   6.854   6.854   6.854   6.854   6.854   6.854   6.854   6.854   6.854
    76.25    6.854   6.854   6.854   6.854   6.854   6.854   6.854   6.854   6.854   6.854   6.854   6.854   6.854
    62.50    6.854   6.854   6.854   6.854   6.854   6.854   6.854   6.854   6.854   6.854   6.854   6.854   6.854
    48.75    6.854   6.854   6.854   6.854   6.854   6.854   6.854   6.854   6.854   6.854   6.854   6.854   6.854
    35.00    6.854   6.854   6.854   6.854   6.854   6.854   6.854   6.854   6.854   6.854   6.854   6.854   6.854
    21.25    6.854   6.854   6.854   6.854   6.854   6.854   6.854   6.854   6.854   6.854   6.854   6.854   6.854
     7.50    6.854   6.854   6.854   6.854   6.854   6.854   6.854   6.854   6.854   6.854   6.854   6.854   6.854

   Height   Standard deviation at grid points for the w component:
   172.50    4.108   4.108   4.108   4.108   4.108   4.108   4.108   4.108   4.108   4.108   4.108   4.108   4.108
   158.75    4.108   4.108   4.108   4.108   4.108   4.108   4.108   4.108   4.108   4.108   4.108   4.108   4.108
   145.00    4.108   4.108   4.108   4.108   4.108   4.108   4.108   4.108   4.108   4.108   4.108   4.108   4.108
   131.25    4.108   4.108   4.108   4.108   4.108   4.108   4.108   4.108   4.108   4.108   4.108   4.108   4.108
   117.50    4.108   4.108   4.108   4.108   4.108   4.108   4.108   4.108   4.108   4.108   4.108   4.108   4.108
   103.75    4.108   4.108   4.108   4.108   4.108   4.108   4.108   4.108   4.108   4.108   4.108   4.108   4.108
    90.00    4.108   4.108   4.108   4.108   4.108   4.108   4.108   4.108   4.108   4.108   4.108   4.108   4.108
    76.25    4.108   4.108   4.108   4.108   4.108   4.108   4.108   4.108   4.108   4.108   4.108   4.108   4.108
    62.50    4.108   4.108   4.108   4.108   4.108   4.108   4.108   4.108   4.108   4.108   4.108   4.108   4.108
    48.75    4.108   4.108   4.108   4.108   4.108   4.108   4.108   4.108   4.108   4.108   4.108   4.108   4.108
    35.00    4.108   4.108   4.108   4.108   4.108   4.108   4.108   4.108   4.108   4.108   4.108   4.108   4.108
    21.25    4.108   4.108   4.108   4.108   4.108   4.108   4.108   4.108   4.108   4.108   4.108   4.108   4.108
     7.50    4.108   4.108   4.108   4.108   4.108   4.108   4.108   4.108   4.108   4.108   4.108   4.108   4.108

   Mean standard deviation across all grid points:
      u component:    8.699 m/s
      v component:    6.854 m/s
      w component:    4.108 m/s


U-component (X) statistics from the interpolated hub point:

   Mean =  80.0000 m/s
   TI   =  10.8890 %


Processing complete.  15.984 CPU seconds used.
