
This summary file was generated by TurbSim (v2.00.07a-bjj, 14-Jun-2016) on 23-Mar-2020 at 09:49:18.


Runtime Options:

        11  Random seed #1
        12  Random seed #2
         F  Output binary HH turbulence parameters?
         F  Output formatted turbulence parameters?
         F  Output AeroDyn HH files?
         T  Output AeroDyn FF files?
         F  Output BLADED FF files?
         F  Output tower data?
         F  Output formatted FF files?
         F  Output coherent turbulence time step file?
         T  Clockwise rotation when looking downwind?
 0 -  NONE  IEC turbulence models scaled to exact specified standard deviation


Turbine/Model Specifications:

        13  Vertical grid-point matrix dimension
        13  Horizontal grid-point matrix dimension
     0.050  Time step [seconds]
  3630.000  Analysis time [seconds]
  3630.000  Usable output time [seconds]
    90.000  Hub height [m]
   165.000  Grid height [m]
   165.000  Grid width [m]
     0.000  Vertical flow angle [degrees]
     0.000  Horizontal flow angle [degrees]


Meteorological Boundary Conditions:

    IECKAI  IEC Kaimal spectral model
         3  IEC standard: IEC 61400-3 Ed. 1: 2006
    11.000  Percent turbulence intensity, IEC 61400-3 Ed. 1: 2006
       NTM  IEC Normal Turbulence Model
       N/A  IEC Extreme Turbulence Model (ETM) "c" parameter [m/s]
       IEC  Wind profile type
    90.000  Reference height [m]
    85.000  Reference wind speed [m/s]
       N/A  Jet height [m]
     0.140  Power law exponent
     0.030  Surface roughness length [m]


Non-IEC Meteorological Boundary Conditions:

       N/A  Site latitude [degrees]
       N/A  Gradient Richardson number
       N/A  Friction or shear velocity [m/s]
       N/A  Mixing layer depth [m]
       N/A  Mean hub u'w' Reynolds stress
       N/A  Mean hub u'v' Reynolds stress
       N/A  Mean hub v'w' Reynolds stress


Spatial Coherence Models:

       IEC  u-component coherence model
      NONE  v-component coherence model
      NONE  w-component coherence model
(   12.000, 0.353E-03)  u-component coherence parameters
                   N/A  v-component coherence parameters
                   N/A  w-component coherence parameters
       N/A  Coherence exponent


You have requested that the following file(s) be generated:

   1_85.bts (AeroDyn/TurbSim full-field wind file)


Turbulence Simulation Scaling Parameter Summary:

   Turbulence model used                            =  IEC Kaimal
   Turbulence characteristic                        =  User-specified
   IEC standard                                     =  IEC 61400-3 Ed. 1: 2006
   Mean wind speed at hub height                    =   85.000 m/s
   Characteristic value of standard deviation       =    9.350 m/s
   Turbulence scale                                 =   42.000 m
   u-component integral scale                       =  340.200 m
   Coherency scale                                  =  340.200 m
   Characteristic value of hub turbulence intensity =   11.000%
   Gradient Richardson number                       =    0.000

   Wind profile type                                =  Power law on rotor disk, logarithmic elsewhere
   Power law exponent                               =    0.140
   Mean shear across rotor disk                     =    0.200 (m/s)/m
   Assumed rotor diameter                           =  165.000 m
   Surface roughness length                         =    0.030 m

   Nyquist frequency of turbulent wind field        =   10.000 Hz

   Number of time steps in the FFT                  =    72600
   Number of time steps output                      =    72600
   Number of points simulated                       =      169


Mean Flow Angles:

   Vertical   =   0.0 degrees
   Horizontal =   0.0 degrees

Mean Wind Speed Profile:

   Height    Wind Speed   Horizontal Angle  Vertical Angle  U-comp (X)   V-comp (Y)   W-comp (Z)
     (m)        (m/s)         (degrees)       (degrees)       (m/s)        (m/s)        (m/s)   
   ------    ----------   ----------------  --------------  ----------   ----------   ----------
    172.5       93.11            0.00            0.00         93.11         0.00         0.00
    158.8       92.03            0.00            0.00         92.03         0.00         0.00
    145.0       90.87            0.00            0.00         90.87         0.00         0.00
    131.2       89.61            0.00            0.00         89.61         0.00         0.00
    117.5       88.23            0.00            0.00         88.23         0.00         0.00
    103.8       86.71            0.00            0.00         86.71         0.00         0.00
     90.0       85.00            0.00            0.00         85.00         0.00         0.00
     76.2       83.05            0.00            0.00         83.05         0.00         0.00
     62.5       80.77            0.00            0.00         80.77         0.00         0.00
     48.8       78.01            0.00            0.00         78.01         0.00         0.00
     35.0       74.47            0.00            0.00         74.47         0.00         0.00
     21.2       69.45            0.00            0.00         69.45         0.00         0.00
      7.5       60.03            0.00            0.00         60.03         0.00         0.00


Harvested Random Seeds after Generation of the Random Numbers:

     42362498 Harvested seed # 1
    583267423 Harvested seed # 2


Hub-Height Simulated Turbulence Statistical Summary:

   Type of Wind        Min (m/s)   Mean (m/s)    Max (m/s)  Sigma (m/s)       TI (%)
   ----------------    ---------   ----------    ---------  -----------       ------
   Longitudinal (u)        49.45        85.00       124.71        9.256       10.890
   Lateral (v)            -29.27        -0.00        30.19        7.275        8.559
   Vertical (w)           -18.86         0.00        17.91        4.352        5.120
   U component             49.45        85.00       124.71        9.256       10.890
   V component            -29.27        -0.00        30.19        7.275        8.559
   W component            -18.86         0.00        17.91        4.352        5.120
   Horizontal (U&V)        49.49        85.31       125.10        9.234       10.823
   Total                   49.75        85.43       125.10        9.225       10.798

                       Min Reynolds     Mean Reynolds    Max Reynolds    Correlation
   Product             Stress (m/s)^2   Stress (m/s)^2   Stress (m/s)^2  Coefficient
   ----------------    --------------   --------------   --------------  -----------
   u'w'                   -537.831            -0.136           328.222        -0.003
   u'v'                   -601.099             0.468           631.523         0.007
   v'w'                   -262.204            -0.944           384.695        -0.030


   Friction Velocity (Ustar)  =      0.369 m/s
   Maximum Instantaneous TKE  =    836.641 (m/s)^2
   Maximum Instantaneous CTKE =    335.697 (m/s)^2


Grid Point Variance Summary:

   Y-coord  -82.50  -68.75  -55.00  -41.25  -27.50  -13.75    0.00   13.75   27.50   41.25   55.00   68.75   82.50

   Height   Standard deviation at grid points for the u component:
   172.50    9.474   9.472   9.416   9.453   9.296   9.317   9.350   9.287   9.166   9.241   9.118   9.149   9.168
   158.75    9.483   9.385   9.482   9.310   9.215   9.226   9.396   9.263   9.147   9.140   9.189   9.037   9.135
   145.00    9.489   9.337   9.374   9.275   9.158   9.205   9.266   9.320   9.249   9.239   9.198   9.167   9.196
   131.25    9.395   9.390   9.277   9.342   9.097   9.131   9.220   9.255   9.105   9.169   9.161   9.142   9.265
   117.50    9.446   9.287   9.320   9.183   9.114   9.113   9.206   9.358   9.317   9.188   9.179   9.315   9.314
   103.75    9.526   9.382   9.354   9.246   9.224   9.261   9.289   9.319   9.319   9.338   9.359   9.462   9.248
    90.00    9.499   9.362   9.300   9.303   9.192   9.227   9.256   9.254   9.272   9.206   9.150   9.239   9.347
    76.25    9.522   9.479   9.338   9.224   9.198   9.168   9.176   9.137   9.106   9.116   9.209   9.343   9.251
    62.50    9.399   9.375   9.337   9.398   9.335   9.210   9.140   9.138   9.150   9.145   9.222   9.122   9.085
    48.75    9.515   9.538   9.249   9.143   9.226   9.163   9.230   9.176   9.146   9.195   9.145   8.993   9.087
    35.00    9.349   9.334   9.222   9.220   9.134   9.163   9.148   9.236   9.153   9.193   9.065   8.994   9.094
    21.25    9.301   9.219   9.123   9.146   9.124   9.092   9.113   9.095   9.169   9.188   9.093   9.084   9.117
     7.50    9.218   9.142   9.170   9.185   9.089   9.149   9.040   9.083   9.045   9.137   9.179   9.253   9.196

   Height   Standard deviation at grid points for the v component:
   172.50    7.275   7.275   7.275   7.275   7.275   7.275   7.275   7.275   7.275   7.275   7.275   7.275   7.275
   158.75    7.275   7.275   7.275   7.275   7.275   7.275   7.275   7.275   7.275   7.275   7.275   7.275   7.275
   145.00    7.275   7.275   7.275   7.275   7.275   7.275   7.275   7.275   7.275   7.275   7.275   7.275   7.275
   131.25    7.275   7.275   7.275   7.275   7.275   7.275   7.275   7.275   7.275   7.275   7.275   7.275   7.275
   117.50    7.275   7.275   7.275   7.275   7.275   7.275   7.275   7.275   7.275   7.275   7.275   7.275   7.275
   103.75    7.275   7.275   7.275   7.275   7.275   7.275   7.275   7.275   7.275   7.275   7.275   7.275   7.275
    90.00    7.275   7.275   7.275   7.275   7.275   7.275   7.275   7.275   7.275   7.275   7.275   7.275   7.275
    76.25    7.275   7.275   7.275   7.275   7.275   7.275   7.275   7.275   7.275   7.275   7.275   7.275   7.275
    62.50    7.275   7.275   7.275   7.275   7.275   7.275   7.275   7.275   7.275   7.275   7.275   7.275   7.275
    48.75    7.275   7.275   7.275   7.275   7.275   7.275   7.275   7.275   7.275   7.275   7.275   7.275   7.275
    35.00    7.275   7.275   7.275   7.275   7.275   7.275   7.275   7.275   7.275   7.275   7.275   7.275   7.275
    21.25    7.275   7.275   7.275   7.275   7.275   7.275   7.275   7.275   7.275   7.275   7.275   7.275   7.275
     7.50    7.275   7.275   7.275   7.275   7.275   7.275   7.275   7.275   7.275   7.275   7.275   7.275   7.275

   Height   Standard deviation at grid points for the w component:
   172.50    4.352   4.352   4.352   4.352   4.352   4.352   4.352   4.352   4.352   4.352   4.352   4.352   4.352
   158.75    4.352   4.352   4.352   4.352   4.352   4.352   4.352   4.352   4.352   4.352   4.352   4.352   4.352
   145.00    4.352   4.352   4.352   4.352   4.352   4.352   4.352   4.352   4.352   4.352   4.352   4.352   4.352
   131.25    4.352   4.352   4.352   4.352   4.352   4.352   4.352   4.352   4.352   4.352   4.352   4.352   4.352
   117.50    4.352   4.352   4.352   4.352   4.352   4.352   4.352   4.352   4.352   4.352   4.352   4.352   4.352
   103.75    4.352   4.352   4.352   4.352   4.352   4.352   4.352   4.352   4.352   4.352   4.352   4.352   4.352
    90.00    4.352   4.352   4.352   4.352   4.352   4.352   4.352   4.352   4.352   4.352   4.352   4.352   4.352
    76.25    4.352   4.352   4.352   4.352   4.352   4.352   4.352   4.352   4.352   4.352   4.352   4.352   4.352
    62.50    4.352   4.352   4.352   4.352   4.352   4.352   4.352   4.352   4.352   4.352   4.352   4.352   4.352
    48.75    4.352   4.352   4.352   4.352   4.352   4.352   4.352   4.352   4.352   4.352   4.352   4.352   4.352
    35.00    4.352   4.352   4.352   4.352   4.352   4.352   4.352   4.352   4.352   4.352   4.352   4.352   4.352
    21.25    4.352   4.352   4.352   4.352   4.352   4.352   4.352   4.352   4.352   4.352   4.352   4.352   4.352
     7.50    4.352   4.352   4.352   4.352   4.352   4.352   4.352   4.352   4.352   4.352   4.352   4.352   4.352

   Mean standard deviation across all grid points:
      u component:    9.238 m/s
      v component:    7.275 m/s
      w component:    4.352 m/s


U-component (X) statistics from the interpolated hub point:

   Mean =  85.0000 m/s
   TI   =  10.8899 %


Processing complete.  15.891 CPU seconds used.
