
This summary file was generated by TurbSim (v2.00.07a-bjj, 14-Jun-2016) on 23-Mar-2020 at 10:19:17.


Runtime Options:

        41  Random seed #1
        42  Random seed #2
         F  Output binary HH turbulence parameters?
         F  Output formatted turbulence parameters?
         F  Output AeroDyn HH files?
         T  Output AeroDyn FF files?
         F  Output BLADED FF files?
         F  Output tower data?
         F  Output formatted FF files?
         F  Output coherent turbulence time step file?
         T  Clockwise rotation when looking downwind?
 0 -  NONE  IEC turbulence models scaled to exact specified standard deviation


Turbine/Model Specifications:

        13  Vertical grid-point matrix dimension
        13  Horizontal grid-point matrix dimension
     0.050  Time step [seconds]
  3630.000  Analysis time [seconds]
  3630.000  Usable output time [seconds]
    90.000  Hub height [m]
   165.000  Grid height [m]
   165.000  Grid width [m]
     0.000  Vertical flow angle [degrees]
     0.000  Horizontal flow angle [degrees]


Meteorological Boundary Conditions:

    IECKAI  IEC Kaimal spectral model
         3  IEC standard: IEC 61400-3 Ed. 1: 2006
    11.000  Percent turbulence intensity, IEC 61400-3 Ed. 1: 2006
       NTM  IEC Normal Turbulence Model
       N/A  IEC Extreme Turbulence Model (ETM) "c" parameter [m/s]
       IEC  Wind profile type
    90.000  Reference height [m]
    26.000  Reference wind speed [m/s]
       N/A  Jet height [m]
     0.140  Power law exponent
     0.030  Surface roughness length [m]


Non-IEC Meteorological Boundary Conditions:

       N/A  Site latitude [degrees]
       N/A  Gradient Richardson number
       N/A  Friction or shear velocity [m/s]
       N/A  Mixing layer depth [m]
       N/A  Mean hub u'w' Reynolds stress
       N/A  Mean hub u'v' Reynolds stress
       N/A  Mean hub v'w' Reynolds stress


Spatial Coherence Models:

       IEC  u-component coherence model
      NONE  v-component coherence model
      NONE  w-component coherence model
(   12.000, 0.353E-03)  u-component coherence parameters
                   N/A  v-component coherence parameters
                   N/A  w-component coherence parameters
       N/A  Coherence exponent


You have requested that the following file(s) be generated:

   4_26.bts (AeroDyn/TurbSim full-field wind file)


Turbulence Simulation Scaling Parameter Summary:

   Turbulence model used                            =  IEC Kaimal
   Turbulence characteristic                        =  User-specified
   IEC standard                                     =  IEC 61400-3 Ed. 1: 2006
   Mean wind speed at hub height                    =   26.000 m/s
   Characteristic value of standard deviation       =    2.860 m/s
   Turbulence scale                                 =   42.000 m
   u-component integral scale                       =  340.200 m
   Coherency scale                                  =  340.200 m
   Characteristic value of hub turbulence intensity =   11.000%
   Gradient Richardson number                       =    0.000

   Wind profile type                                =  Power law on rotor disk, logarithmic elsewhere
   Power law exponent                               =    0.140
   Mean shear across rotor disk                     =    0.061 (m/s)/m
   Assumed rotor diameter                           =  165.000 m
   Surface roughness length                         =    0.030 m

   Nyquist frequency of turbulent wind field        =   10.000 Hz

   Number of time steps in the FFT                  =    72600
   Number of time steps output                      =    72600
   Number of points simulated                       =      169


Mean Flow Angles:

   Vertical   =   0.0 degrees
   Horizontal =   0.0 degrees

Mean Wind Speed Profile:

   Height    Wind Speed   Horizontal Angle  Vertical Angle  U-comp (X)   V-comp (Y)   W-comp (Z)
     (m)        (m/s)         (degrees)       (degrees)       (m/s)        (m/s)        (m/s)   
   ------    ----------   ----------------  --------------  ----------   ----------   ----------
    172.5       28.48            0.00            0.00         28.48         0.00         0.00
    158.8       28.15            0.00            0.00         28.15         0.00         0.00
    145.0       27.80            0.00            0.00         27.80         0.00         0.00
    131.2       27.41            0.00            0.00         27.41         0.00         0.00
    117.5       26.99            0.00            0.00         26.99         0.00         0.00
    103.8       26.52            0.00            0.00         26.52         0.00         0.00
     90.0       26.00            0.00            0.00         26.00         0.00         0.00
     76.2       25.40            0.00            0.00         25.40         0.00         0.00
     62.5       24.71            0.00            0.00         24.71         0.00         0.00
     48.8       23.86            0.00            0.00         23.86         0.00         0.00
     35.0       22.78            0.00            0.00         22.78         0.00         0.00
     21.2       21.24            0.00            0.00         21.24         0.00         0.00
      7.5       18.36            0.00            0.00         18.36         0.00         0.00


Harvested Random Seeds after Generation of the Random Numbers:

   2110154368 Harvested seed # 1
    967694281 Harvested seed # 2


Hub-Height Simulated Turbulence Statistical Summary:

   Type of Wind        Min (m/s)   Mean (m/s)    Max (m/s)  Sigma (m/s)       TI (%)
   ----------------    ---------   ----------    ---------  -----------       ------
   Longitudinal (u)        15.92        26.00        37.35        2.999       11.536
   Lateral (v)             -9.84         0.00         8.62        2.257        8.681
   Vertical (w)            -5.47        -0.00         5.90        1.385        5.325
   U component             15.92        26.00        37.35        2.999       11.536
   V component             -9.84         0.00         8.62        2.257        8.681
   W component             -5.47        -0.00         5.90        1.385        5.325
   Horizontal (U&V)        16.35        26.10        37.47        2.988       11.447
   Total                   16.38        26.14        37.47        2.985       11.421

                       Min Reynolds     Mean Reynolds    Max Reynolds    Correlation
   Product             Stress (m/s)^2   Stress (m/s)^2   Stress (m/s)^2  Coefficient
   ----------------    --------------   --------------   --------------  -----------
   u'w'                    -35.817            -0.021            41.142        -0.005
   u'v'                    -51.841            -0.670            51.232        -0.099
   v'w'                    -25.569             0.064            23.947         0.021


   Friction Velocity (Ustar)  =      0.146 m/s
   Maximum Instantaneous TKE  =     69.031 (m/s)^2
   Maximum Instantaneous CTKE =     26.667 (m/s)^2


Grid Point Variance Summary:

   Y-coord  -82.50  -68.75  -55.00  -41.25  -27.50  -13.75    0.00   13.75   27.50   41.25   55.00   68.75   82.50

   Height   Standard deviation at grid points for the u component:
   172.50    2.980   2.918   2.942   3.051   3.062   3.011   2.947   2.981   2.905   2.848   2.854   2.807   2.794
   158.75    2.924   2.890   2.947   2.946   2.939   3.005   2.944   2.974   2.967   2.960   2.940   2.867   2.803
   145.00    2.882   2.910   2.991   2.957   2.897   2.933   3.013   2.995   2.947   2.965   2.989   2.963   2.911
   131.25    2.867   2.896   2.991   2.963   2.956   2.977   2.969   3.018   2.973   3.011   2.964   2.975   2.945
   117.50    2.792   2.926   2.961   2.982   2.994   2.909   2.956   3.006   3.057   2.972   2.942   2.912   2.868
   103.75    2.840   2.989   2.941   2.959   3.001   2.978   2.992   2.962   2.951   2.923   2.887   2.931   2.893
    90.00    2.973   2.958   2.948   2.894   2.899   2.869   2.999   3.002   2.913   2.958   2.900   2.926   2.922
    76.25    2.905   2.948   2.976   2.943   2.911   2.825   2.871   2.877   2.872   2.891   2.922   2.918   2.940
    62.50    2.911   2.979   2.851   2.902   2.831   2.837   2.772   2.866   2.872   2.877   2.907   2.882   2.966
    48.75    2.879   2.931   2.949   2.861   2.841   2.854   2.766   2.768   2.793   2.831   2.828   2.926   2.971
    35.00    2.884   2.853   2.869   2.824   2.838   2.859   2.804   2.775   2.780   2.721   2.753   2.848   2.924
    21.25    2.856   2.822   2.852   2.828   2.836   2.796   2.750   2.771   2.701   2.701   2.753   2.832   2.857
     7.50    2.833   2.796   2.888   2.916   2.827   2.861   2.753   2.743   2.722   2.699   2.757   2.789   2.787

   Height   Standard deviation at grid points for the v component:
   172.50    2.257   2.257   2.257   2.257   2.257   2.257   2.257   2.257   2.257   2.257   2.257   2.257   2.257
   158.75    2.257   2.257   2.257   2.257   2.257   2.257   2.257   2.257   2.257   2.257   2.257   2.257   2.257
   145.00    2.257   2.257   2.257   2.257   2.257   2.257   2.257   2.257   2.257   2.257   2.257   2.257   2.257
   131.25    2.257   2.257   2.257   2.257   2.257   2.257   2.257   2.257   2.257   2.257   2.257   2.257   2.257
   117.50    2.257   2.257   2.257   2.257   2.257   2.257   2.257   2.257   2.257   2.257   2.257   2.257   2.257
   103.75    2.257   2.257   2.257   2.257   2.257   2.257   2.257   2.257   2.257   2.257   2.257   2.257   2.257
    90.00    2.257   2.257   2.257   2.257   2.257   2.257   2.257   2.257   2.257   2.257   2.257   2.257   2.257
    76.25    2.257   2.257   2.257   2.257   2.257   2.257   2.257   2.257   2.257   2.257   2.257   2.257   2.257
    62.50    2.257   2.257   2.257   2.257   2.257   2.257   2.257   2.257   2.257   2.257   2.257   2.257   2.257
    48.75    2.257   2.257   2.257   2.257   2.257   2.257   2.257   2.257   2.257   2.257   2.257   2.257   2.257
    35.00    2.257   2.257   2.257   2.257   2.257   2.257   2.257   2.257   2.257   2.257   2.257   2.257   2.257
    21.25    2.257   2.257   2.257   2.257   2.257   2.257   2.257   2.257   2.257   2.257   2.257   2.257   2.257
     7.50    2.257   2.257   2.257   2.257   2.257   2.257   2.257   2.257   2.257   2.257   2.257   2.257   2.257

   Height   Standard deviation at grid points for the w component:
   172.50    1.385   1.385   1.385   1.385   1.385   1.385   1.385   1.385   1.385   1.385   1.385   1.385   1.385
   158.75    1.385   1.385   1.385   1.385   1.385   1.385   1.385   1.385   1.385   1.385   1.385   1.385   1.385
   145.00    1.385   1.385   1.385   1.385   1.385   1.385   1.385   1.385   1.385   1.385   1.385   1.385   1.385
   131.25    1.385   1.385   1.385   1.385   1.385   1.385   1.385   1.385   1.385   1.385   1.385   1.385   1.385
   117.50    1.385   1.385   1.385   1.385   1.385   1.385   1.385   1.385   1.385   1.385   1.385   1.385   1.385
   103.75    1.385   1.385   1.385   1.385   1.385   1.385   1.385   1.385   1.385   1.385   1.385   1.385   1.385
    90.00    1.385   1.385   1.385   1.385   1.385   1.385   1.385   1.385   1.385   1.385   1.385   1.385   1.385
    76.25    1.385   1.385   1.385   1.385   1.385   1.385   1.385   1.385   1.385   1.385   1.385   1.385   1.385
    62.50    1.385   1.385   1.385   1.385   1.385   1.385   1.385   1.385   1.385   1.385   1.385   1.385   1.385
    48.75    1.385   1.385   1.385   1.385   1.385   1.385   1.385   1.385   1.385   1.385   1.385   1.385   1.385
    35.00    1.385   1.385   1.385   1.385   1.385   1.385   1.385   1.385   1.385   1.385   1.385   1.385   1.385
    21.25    1.385   1.385   1.385   1.385   1.385   1.385   1.385   1.385   1.385   1.385   1.385   1.385   1.385
     7.50    1.385   1.385   1.385   1.385   1.385   1.385   1.385   1.385   1.385   1.385   1.385   1.385   1.385

   Mean standard deviation across all grid points:
      u component:    2.897 m/s
      v component:    2.257 m/s
      w component:    1.385 m/s


U-component (X) statistics from the interpolated hub point:

   Mean =  26.0000 m/s
   TI   =  11.5359 %


Processing complete.  16.422 CPU seconds used.
