
This summary file was generated by TurbSim (v2.00.07a-bjj, 14-Jun-2016) on 23-Mar-2020 at 10:22:34.


Runtime Options:

        41  Random seed #1
        42  Random seed #2
         F  Output binary HH turbulence parameters?
         F  Output formatted turbulence parameters?
         F  Output AeroDyn HH files?
         T  Output AeroDyn FF files?
         F  Output BLADED FF files?
         F  Output tower data?
         F  Output formatted FF files?
         F  Output coherent turbulence time step file?
         T  Clockwise rotation when looking downwind?
 0 -  NONE  IEC turbulence models scaled to exact specified standard deviation


Turbine/Model Specifications:

        13  Vertical grid-point matrix dimension
        13  Horizontal grid-point matrix dimension
     0.050  Time step [seconds]
  3630.000  Analysis time [seconds]
  3630.000  Usable output time [seconds]
    90.000  Hub height [m]
   165.000  Grid height [m]
   165.000  Grid width [m]
     0.000  Vertical flow angle [degrees]
     0.000  Horizontal flow angle [degrees]


Meteorological Boundary Conditions:

    IECKAI  IEC Kaimal spectral model
         3  IEC standard: IEC 61400-3 Ed. 1: 2006
    11.000  Percent turbulence intensity, IEC 61400-3 Ed. 1: 2006
       NTM  IEC Normal Turbulence Model
       N/A  IEC Extreme Turbulence Model (ETM) "c" parameter [m/s]
       IEC  Wind profile type
    90.000  Reference height [m]
    55.000  Reference wind speed [m/s]
       N/A  Jet height [m]
     0.140  Power law exponent
     0.030  Surface roughness length [m]


Non-IEC Meteorological Boundary Conditions:

       N/A  Site latitude [degrees]
       N/A  Gradient Richardson number
       N/A  Friction or shear velocity [m/s]
       N/A  Mixing layer depth [m]
       N/A  Mean hub u'w' Reynolds stress
       N/A  Mean hub u'v' Reynolds stress
       N/A  Mean hub v'w' Reynolds stress


Spatial Coherence Models:

       IEC  u-component coherence model
      NONE  v-component coherence model
      NONE  w-component coherence model
(   12.000, 0.353E-03)  u-component coherence parameters
                   N/A  v-component coherence parameters
                   N/A  w-component coherence parameters
       N/A  Coherence exponent


You have requested that the following file(s) be generated:

   4_55.bts (AeroDyn/TurbSim full-field wind file)


Turbulence Simulation Scaling Parameter Summary:

   Turbulence model used                            =  IEC Kaimal
   Turbulence characteristic                        =  User-specified
   IEC standard                                     =  IEC 61400-3 Ed. 1: 2006
   Mean wind speed at hub height                    =   55.000 m/s
   Characteristic value of standard deviation       =    6.050 m/s
   Turbulence scale                                 =   42.000 m
   u-component integral scale                       =  340.200 m
   Coherency scale                                  =  340.200 m
   Characteristic value of hub turbulence intensity =   11.000%
   Gradient Richardson number                       =    0.000

   Wind profile type                                =  Power law on rotor disk, logarithmic elsewhere
   Power law exponent                               =    0.140
   Mean shear across rotor disk                     =    0.130 (m/s)/m
   Assumed rotor diameter                           =  165.000 m
   Surface roughness length                         =    0.030 m

   Nyquist frequency of turbulent wind field        =   10.000 Hz

   Number of time steps in the FFT                  =    72600
   Number of time steps output                      =    72600
   Number of points simulated                       =      169


Mean Flow Angles:

   Vertical   =   0.0 degrees
   Horizontal =   0.0 degrees

Mean Wind Speed Profile:

   Height    Wind Speed   Horizontal Angle  Vertical Angle  U-comp (X)   V-comp (Y)   W-comp (Z)
     (m)        (m/s)         (degrees)       (degrees)       (m/s)        (m/s)        (m/s)   
   ------    ----------   ----------------  --------------  ----------   ----------   ----------
    172.5       60.24            0.00            0.00         60.24         0.00         0.00
    158.8       59.55            0.00            0.00         59.55         0.00         0.00
    145.0       58.80            0.00            0.00         58.80         0.00         0.00
    131.2       57.98            0.00            0.00         57.98         0.00         0.00
    117.5       57.09            0.00            0.00         57.09         0.00         0.00
    103.8       56.11            0.00            0.00         56.11         0.00         0.00
     90.0       55.00            0.00            0.00         55.00         0.00         0.00
     76.2       53.74            0.00            0.00         53.74         0.00         0.00
     62.5       52.26            0.00            0.00         52.26         0.00         0.00
     48.8       50.48            0.00            0.00         50.48         0.00         0.00
     35.0       48.19            0.00            0.00         48.19         0.00         0.00
     21.2       44.94            0.00            0.00         44.94         0.00         0.00
      7.5       38.84            0.00            0.00         38.84         0.00         0.00


Harvested Random Seeds after Generation of the Random Numbers:

   2110154368 Harvested seed # 1
    967694281 Harvested seed # 2


Hub-Height Simulated Turbulence Statistical Summary:

   Type of Wind        Min (m/s)   Mean (m/s)    Max (m/s)  Sigma (m/s)       TI (%)
   ----------------    ---------   ----------    ---------  -----------       ------
   Longitudinal (u)        32.55        55.00        80.13        6.165       11.209
   Lateral (v)            -21.05         0.00        19.96        4.739        8.617
   Vertical (w)           -11.28        -0.00        12.02        2.868        5.215
   U component             32.55        55.00        80.13        6.165       11.209
   V component            -21.05         0.00        19.96        4.739        8.617
   W component            -11.28        -0.00        12.02        2.868        5.215
   Horizontal (U&V)        32.96        55.21        80.37        6.140       11.122
   Total                   33.08        55.28        80.38        6.133       11.095

                       Min Reynolds     Mean Reynolds    Max Reynolds    Correlation
   Product             Stress (m/s)^2   Stress (m/s)^2   Stress (m/s)^2  Coefficient
   ----------------    --------------   --------------   --------------  -----------
   u'w'                   -148.339            -0.012           211.631        -0.001
   u'v'                   -247.809            -2.011           228.464        -0.069
   v'w'                   -123.565             0.145           108.032         0.011


   Friction Velocity (Ustar)  =      0.110 m/s
   Maximum Instantaneous TKE  =    335.773 (m/s)^2
   Maximum Instantaneous CTKE =    137.124 (m/s)^2


Grid Point Variance Summary:

   Y-coord  -82.50  -68.75  -55.00  -41.25  -27.50  -13.75    0.00   13.75   27.50   41.25   55.00   68.75   82.50

   Height   Standard deviation at grid points for the u component:
   172.50    6.189   6.058   6.114   6.257   6.281   6.176   6.071   6.113   6.020   5.980   5.998   5.910   5.863
   158.75    6.092   6.064   6.140   6.149   6.089   6.177   6.071   6.119   6.107   6.105   6.083   5.983   5.881
   145.00    6.018   6.079   6.186   6.133   6.018   6.043   6.206   6.192   6.098   6.117   6.163   6.157   6.035
   131.25    6.005   6.087   6.185   6.137   6.107   6.108   6.127   6.182   6.111   6.175   6.123   6.123   6.068
   117.50    5.943   6.136   6.132   6.159   6.158   6.042   6.111   6.158   6.226   6.095   6.056   5.998   5.932
   103.75    6.053   6.224   6.124   6.126   6.195   6.143   6.166   6.093   6.091   6.053   6.003   6.052   5.991
    90.00    6.234   6.198   6.148   6.065   6.045   5.986   6.165   6.167   6.045   6.124   6.012   6.025   6.029
    76.25    6.139   6.162   6.201   6.112   6.061   5.968   6.046   6.006   5.992   6.022   6.053   6.029   6.078
    62.50    6.115   6.203   6.015   6.043   6.010   5.993   5.917   6.021   5.985   6.012   6.045   5.976   6.112
    48.75    6.046   6.112   6.104   6.015   6.010   6.045   5.887   5.865   5.887   5.926   5.927   6.037   6.060
    35.00    6.043   5.995   6.025   5.973   5.971   6.011   5.935   5.927   5.938   5.856   5.833   5.927   6.032
    21.25    5.981   5.940   5.973   5.961   5.979   5.927   5.863   5.884   5.808   5.821   5.851   5.927   5.941
     7.50    5.981   5.898   6.023   6.089   5.965   6.043   5.856   5.818   5.791   5.757   5.829   5.835   5.832

   Height   Standard deviation at grid points for the v component:
   172.50    4.739   4.739   4.739   4.739   4.739   4.739   4.739   4.739   4.739   4.739   4.739   4.739   4.739
   158.75    4.739   4.739   4.739   4.739   4.739   4.739   4.739   4.739   4.739   4.739   4.739   4.739   4.739
   145.00    4.739   4.739   4.739   4.739   4.739   4.739   4.739   4.739   4.739   4.739   4.739   4.739   4.739
   131.25    4.739   4.739   4.739   4.739   4.739   4.739   4.739   4.739   4.739   4.739   4.739   4.739   4.739
   117.50    4.739   4.739   4.739   4.739   4.739   4.739   4.739   4.739   4.739   4.739   4.739   4.739   4.739
   103.75    4.739   4.739   4.739   4.739   4.739   4.739   4.739   4.739   4.739   4.739   4.739   4.739   4.739
    90.00    4.739   4.739   4.739   4.739   4.739   4.739   4.739   4.739   4.739   4.739   4.739   4.739   4.739
    76.25    4.739   4.739   4.739   4.739   4.739   4.739   4.739   4.739   4.739   4.739   4.739   4.739   4.739
    62.50    4.739   4.739   4.739   4.739   4.739   4.739   4.739   4.739   4.739   4.739   4.739   4.739   4.739
    48.75    4.739   4.739   4.739   4.739   4.739   4.739   4.739   4.739   4.739   4.739   4.739   4.739   4.739
    35.00    4.739   4.739   4.739   4.739   4.739   4.739   4.739   4.739   4.739   4.739   4.739   4.739   4.739
    21.25    4.739   4.739   4.739   4.739   4.739   4.739   4.739   4.739   4.739   4.739   4.739   4.739   4.739
     7.50    4.739   4.739   4.739   4.739   4.739   4.739   4.739   4.739   4.739   4.739   4.739   4.739   4.739

   Height   Standard deviation at grid points for the w component:
   172.50    2.868   2.868   2.868   2.868   2.868   2.868   2.868   2.868   2.868   2.868   2.868   2.868   2.868
   158.75    2.868   2.868   2.868   2.868   2.868   2.868   2.868   2.868   2.868   2.868   2.868   2.868   2.868
   145.00    2.868   2.868   2.868   2.868   2.868   2.868   2.868   2.868   2.868   2.868   2.868   2.868   2.868
   131.25    2.868   2.868   2.868   2.868   2.868   2.868   2.868   2.868   2.868   2.868   2.868   2.868   2.868
   117.50    2.868   2.868   2.868   2.868   2.868   2.868   2.868   2.868   2.868   2.868   2.868   2.868   2.868
   103.75    2.868   2.868   2.868   2.868   2.868   2.868   2.868   2.868   2.868   2.868   2.868   2.868   2.868
    90.00    2.868   2.868   2.868   2.868   2.868   2.868   2.868   2.868   2.868   2.868   2.868   2.868   2.868
    76.25    2.868   2.868   2.868   2.868   2.868   2.868   2.868   2.868   2.868   2.868   2.868   2.868   2.868
    62.50    2.868   2.868   2.868   2.868   2.868   2.868   2.868   2.868   2.868   2.868   2.868   2.868   2.868
    48.75    2.868   2.868   2.868   2.868   2.868   2.868   2.868   2.868   2.868   2.868   2.868   2.868   2.868
    35.00    2.868   2.868   2.868   2.868   2.868   2.868   2.868   2.868   2.868   2.868   2.868   2.868   2.868
    21.25    2.868   2.868   2.868   2.868   2.868   2.868   2.868   2.868   2.868   2.868   2.868   2.868   2.868
     7.50    2.868   2.868   2.868   2.868   2.868   2.868   2.868   2.868   2.868   2.868   2.868   2.868   2.868

   Mean standard deviation across all grid points:
      u component:    6.042 m/s
      v component:    4.739 m/s
      w component:    2.868 m/s


U-component (X) statistics from the interpolated hub point:

   Mean =  55.0000 m/s
   TI   =  11.2090 %


Processing complete.  16.031 CPU seconds used.
