
This summary file was generated by TurbSim (v2.00.07a-bjj, 14-Jun-2016) on 23-Mar-2020 at 10:24:23.


Runtime Options:

        41  Random seed #1
        42  Random seed #2
         F  Output binary HH turbulence parameters?
         F  Output formatted turbulence parameters?
         F  Output AeroDyn HH files?
         T  Output AeroDyn FF files?
         F  Output BLADED FF files?
         F  Output tower data?
         F  Output formatted FF files?
         F  Output coherent turbulence time step file?
         T  Clockwise rotation when looking downwind?
 0 -  NONE  IEC turbulence models scaled to exact specified standard deviation


Turbine/Model Specifications:

        13  Vertical grid-point matrix dimension
        13  Horizontal grid-point matrix dimension
     0.050  Time step [seconds]
  3630.000  Analysis time [seconds]
  3630.000  Usable output time [seconds]
    90.000  Hub height [m]
   165.000  Grid height [m]
   165.000  Grid width [m]
     0.000  Vertical flow angle [degrees]
     0.000  Horizontal flow angle [degrees]


Meteorological Boundary Conditions:

    IECKAI  IEC Kaimal spectral model
         3  IEC standard: IEC 61400-3 Ed. 1: 2006
    11.000  Percent turbulence intensity, IEC 61400-3 Ed. 1: 2006
       NTM  IEC Normal Turbulence Model
       N/A  IEC Extreme Turbulence Model (ETM) "c" parameter [m/s]
       IEC  Wind profile type
    90.000  Reference height [m]
    60.000  Reference wind speed [m/s]
       N/A  Jet height [m]
     0.140  Power law exponent
     0.030  Surface roughness length [m]


Non-IEC Meteorological Boundary Conditions:

       N/A  Site latitude [degrees]
       N/A  Gradient Richardson number
       N/A  Friction or shear velocity [m/s]
       N/A  Mixing layer depth [m]
       N/A  Mean hub u'w' Reynolds stress
       N/A  Mean hub u'v' Reynolds stress
       N/A  Mean hub v'w' Reynolds stress


Spatial Coherence Models:

       IEC  u-component coherence model
      NONE  v-component coherence model
      NONE  w-component coherence model
(   12.000, 0.353E-03)  u-component coherence parameters
                   N/A  v-component coherence parameters
                   N/A  w-component coherence parameters
       N/A  Coherence exponent


You have requested that the following file(s) be generated:

   4_60.bts (AeroDyn/TurbSim full-field wind file)


Turbulence Simulation Scaling Parameter Summary:

   Turbulence model used                            =  IEC Kaimal
   Turbulence characteristic                        =  User-specified
   IEC standard                                     =  IEC 61400-3 Ed. 1: 2006
   Mean wind speed at hub height                    =   60.000 m/s
   Characteristic value of standard deviation       =    6.600 m/s
   Turbulence scale                                 =   42.000 m
   u-component integral scale                       =  340.200 m
   Coherency scale                                  =  340.200 m
   Characteristic value of hub turbulence intensity =   11.000%
   Gradient Richardson number                       =    0.000

   Wind profile type                                =  Power law on rotor disk, logarithmic elsewhere
   Power law exponent                               =    0.140
   Mean shear across rotor disk                     =    0.142 (m/s)/m
   Assumed rotor diameter                           =  165.000 m
   Surface roughness length                         =    0.030 m

   Nyquist frequency of turbulent wind field        =   10.000 Hz

   Number of time steps in the FFT                  =    72600
   Number of time steps output                      =    72600
   Number of points simulated                       =      169


Mean Flow Angles:

   Vertical   =   0.0 degrees
   Horizontal =   0.0 degrees

Mean Wind Speed Profile:

   Height    Wind Speed   Horizontal Angle  Vertical Angle  U-comp (X)   V-comp (Y)   W-comp (Z)
     (m)        (m/s)         (degrees)       (degrees)       (m/s)        (m/s)        (m/s)   
   ------    ----------   ----------------  --------------  ----------   ----------   ----------
    172.5       65.72            0.00            0.00         65.72         0.00         0.00
    158.8       64.96            0.00            0.00         64.96         0.00         0.00
    145.0       64.14            0.00            0.00         64.14         0.00         0.00
    131.2       63.25            0.00            0.00         63.25         0.00         0.00
    117.5       62.28            0.00            0.00         62.28         0.00         0.00
    103.8       61.21            0.00            0.00         61.21         0.00         0.00
     90.0       60.00            0.00            0.00         60.00         0.00         0.00
     76.2       58.62            0.00            0.00         58.62         0.00         0.00
     62.5       57.01            0.00            0.00         57.01         0.00         0.00
     48.8       55.06            0.00            0.00         55.06         0.00         0.00
     35.0       52.57            0.00            0.00         52.57         0.00         0.00
     21.2       49.02            0.00            0.00         49.02         0.00         0.00
      7.5       42.37            0.00            0.00         42.37         0.00         0.00


Harvested Random Seeds after Generation of the Random Numbers:

   2110154368 Harvested seed # 1
    967694281 Harvested seed # 2


Hub-Height Simulated Turbulence Statistical Summary:

   Type of Wind        Min (m/s)   Mean (m/s)    Max (m/s)  Sigma (m/s)       TI (%)
   ----------------    ---------   ----------    ---------  -----------       ------
   Longitudinal (u)        35.39        60.00        87.39        6.709       11.181
   Lateral (v)            -22.93         0.00        21.96        5.164        8.607
   Vertical (w)           -12.29        -0.00        13.03        3.119        5.198
   U component             35.39        60.00        87.39        6.709       11.181
   V component            -22.93         0.00        21.96        5.164        8.607
   W component            -12.29        -0.00        13.03        3.119        5.198
   Horizontal (U&V)        35.97        60.22        87.65        6.682       11.094
   Total                   36.10        60.31        87.66        6.674       11.067

                       Min Reynolds     Mean Reynolds    Max Reynolds    Correlation
   Product             Stress (m/s)^2   Stress (m/s)^2   Stress (m/s)^2  Coefficient
   ----------------    --------------   --------------   --------------  -----------
   u'w'                   -178.717            -0.009           251.350        -0.000
   u'v'                   -295.036            -2.260           275.163        -0.065
   v'w'                   -147.140             0.156           128.184         0.010


   Friction Velocity (Ustar)  =      0.097 m/s
   Maximum Instantaneous TKE  =    399.064 (m/s)^2
   Maximum Instantaneous CTKE =    165.943 (m/s)^2


Grid Point Variance Summary:

   Y-coord  -82.50  -68.75  -55.00  -41.25  -27.50  -13.75    0.00   13.75   27.50   41.25   55.00   68.75   82.50

   Height   Standard deviation at grid points for the u component:
   172.50    6.737   6.596   6.656   6.803   6.828   6.718   6.608   6.648   6.554   6.519   6.539   6.446   6.394
   158.75    6.635   6.609   6.686   6.697   6.629   6.720   6.607   6.660   6.646   6.645   6.623   6.521   6.414
   145.00    6.556   6.622   6.733   6.676   6.555   6.578   6.753   6.741   6.638   6.657   6.705   6.703   6.572
   131.25    6.544   6.632   6.730   6.680   6.647   6.647   6.670   6.724   6.649   6.715   6.660   6.660   6.606
   117.50    6.485   6.685   6.675   6.705   6.701   6.583   6.655   6.700   6.768   6.632   6.591   6.528   6.458
   103.75    6.605   6.777   6.669   6.670   6.743   6.688   6.714   6.633   6.631   6.592   6.539   6.588   6.525
    90.00    6.792   6.753   6.699   6.613   6.588   6.524   6.709   6.711   6.585   6.667   6.547   6.558   6.563
    76.25    6.693   6.713   6.754   6.657   6.602   6.511   6.593   6.546   6.530   6.559   6.590   6.565   6.616
    62.50    6.665   6.755   6.559   6.584   6.555   6.537   6.460   6.566   6.524   6.552   6.586   6.508   6.652
    48.75    6.590   6.656   6.645   6.558   6.555   6.592   6.425   6.400   6.423   6.462   6.462   6.570   6.590
    35.00    6.584   6.535   6.566   6.515   6.511   6.554   6.474   6.473   6.484   6.398   6.367   6.456   6.565
    21.25    6.517   6.475   6.508   6.499   6.521   6.469   6.403   6.423   6.347   6.361   6.387   6.461   6.471
     7.50    6.522   6.432   6.560   6.632   6.504   6.591   6.395   6.352   6.322   6.287   6.363   6.362   6.358

   Height   Standard deviation at grid points for the v component:
   172.50    5.164   5.164   5.164   5.164   5.164   5.164   5.164   5.164   5.164   5.164   5.164   5.164   5.164
   158.75    5.164   5.164   5.164   5.164   5.164   5.164   5.164   5.164   5.164   5.164   5.164   5.164   5.164
   145.00    5.164   5.164   5.164   5.164   5.164   5.164   5.164   5.164   5.164   5.164   5.164   5.164   5.164
   131.25    5.164   5.164   5.164   5.164   5.164   5.164   5.164   5.164   5.164   5.164   5.164   5.164   5.164
   117.50    5.164   5.164   5.164   5.164   5.164   5.164   5.164   5.164   5.164   5.164   5.164   5.164   5.164
   103.75    5.164   5.164   5.164   5.164   5.164   5.164   5.164   5.164   5.164   5.164   5.164   5.164   5.164
    90.00    5.164   5.164   5.164   5.164   5.164   5.164   5.164   5.164   5.164   5.164   5.164   5.164   5.164
    76.25    5.164   5.164   5.164   5.164   5.164   5.164   5.164   5.164   5.164   5.164   5.164   5.164   5.164
    62.50    5.164   5.164   5.164   5.164   5.164   5.164   5.164   5.164   5.164   5.164   5.164   5.164   5.164
    48.75    5.164   5.164   5.164   5.164   5.164   5.164   5.164   5.164   5.164   5.164   5.164   5.164   5.164
    35.00    5.164   5.164   5.164   5.164   5.164   5.164   5.164   5.164   5.164   5.164   5.164   5.164   5.164
    21.25    5.164   5.164   5.164   5.164   5.164   5.164   5.164   5.164   5.164   5.164   5.164   5.164   5.164
     7.50    5.164   5.164   5.164   5.164   5.164   5.164   5.164   5.164   5.164   5.164   5.164   5.164   5.164

   Height   Standard deviation at grid points for the w component:
   172.50    3.119   3.119   3.119   3.119   3.119   3.119   3.119   3.119   3.119   3.119   3.119   3.119   3.119
   158.75    3.119   3.119   3.119   3.119   3.119   3.119   3.119   3.119   3.119   3.119   3.119   3.119   3.119
   145.00    3.119   3.119   3.119   3.119   3.119   3.119   3.119   3.119   3.119   3.119   3.119   3.119   3.119
   131.25    3.119   3.119   3.119   3.119   3.119   3.119   3.119   3.119   3.119   3.119   3.119   3.119   3.119
   117.50    3.119   3.119   3.119   3.119   3.119   3.119   3.119   3.119   3.119   3.119   3.119   3.119   3.119
   103.75    3.119   3.119   3.119   3.119   3.119   3.119   3.119   3.119   3.119   3.119   3.119   3.119   3.119
    90.00    3.119   3.119   3.119   3.119   3.119   3.119   3.119   3.119   3.119   3.119   3.119   3.119   3.119
    76.25    3.119   3.119   3.119   3.119   3.119   3.119   3.119   3.119   3.119   3.119   3.119   3.119   3.119
    62.50    3.119   3.119   3.119   3.119   3.119   3.119   3.119   3.119   3.119   3.119   3.119   3.119   3.119
    48.75    3.119   3.119   3.119   3.119   3.119   3.119   3.119   3.119   3.119   3.119   3.119   3.119   3.119
    35.00    3.119   3.119   3.119   3.119   3.119   3.119   3.119   3.119   3.119   3.119   3.119   3.119   3.119
    21.25    3.119   3.119   3.119   3.119   3.119   3.119   3.119   3.119   3.119   3.119   3.119   3.119   3.119
     7.50    3.119   3.119   3.119   3.119   3.119   3.119   3.119   3.119   3.119   3.119   3.119   3.119   3.119

   Mean standard deviation across all grid points:
      u component:    6.582 m/s
      v component:    5.164 m/s
      w component:    3.119 m/s


U-component (X) statistics from the interpolated hub point:

   Mean =  60.0000 m/s
   TI   =  11.1812 %


Processing complete.  16.016 CPU seconds used.
