
This summary file was generated by TurbSim (v2.00.07a-bjj, 14-Jun-2016) on 23-Mar-2020 at 10:25:51.


Runtime Options:

        41  Random seed #1
        42  Random seed #2
         F  Output binary HH turbulence parameters?
         F  Output formatted turbulence parameters?
         F  Output AeroDyn HH files?
         T  Output AeroDyn FF files?
         F  Output BLADED FF files?
         F  Output tower data?
         F  Output formatted FF files?
         F  Output coherent turbulence time step file?
         T  Clockwise rotation when looking downwind?
 0 -  NONE  IEC turbulence models scaled to exact specified standard deviation


Turbine/Model Specifications:

        13  Vertical grid-point matrix dimension
        13  Horizontal grid-point matrix dimension
     0.050  Time step [seconds]
  3630.000  Analysis time [seconds]
  3630.000  Usable output time [seconds]
    90.000  Hub height [m]
   165.000  Grid height [m]
   165.000  Grid width [m]
     0.000  Vertical flow angle [degrees]
     0.000  Horizontal flow angle [degrees]


Meteorological Boundary Conditions:

    IECKAI  IEC Kaimal spectral model
         3  IEC standard: IEC 61400-3 Ed. 1: 2006
    11.000  Percent turbulence intensity, IEC 61400-3 Ed. 1: 2006
       NTM  IEC Normal Turbulence Model
       N/A  IEC Extreme Turbulence Model (ETM) "c" parameter [m/s]
       IEC  Wind profile type
    90.000  Reference height [m]
    80.000  Reference wind speed [m/s]
       N/A  Jet height [m]
     0.140  Power law exponent
     0.030  Surface roughness length [m]


Non-IEC Meteorological Boundary Conditions:

       N/A  Site latitude [degrees]
       N/A  Gradient Richardson number
       N/A  Friction or shear velocity [m/s]
       N/A  Mixing layer depth [m]
       N/A  Mean hub u'w' Reynolds stress
       N/A  Mean hub u'v' Reynolds stress
       N/A  Mean hub v'w' Reynolds stress


Spatial Coherence Models:

       IEC  u-component coherence model
      NONE  v-component coherence model
      NONE  w-component coherence model
(   12.000, 0.353E-03)  u-component coherence parameters
                   N/A  v-component coherence parameters
                   N/A  w-component coherence parameters
       N/A  Coherence exponent


You have requested that the following file(s) be generated:

   4_80.bts (AeroDyn/TurbSim full-field wind file)


Turbulence Simulation Scaling Parameter Summary:

   Turbulence model used                            =  IEC Kaimal
   Turbulence characteristic                        =  User-specified
   IEC standard                                     =  IEC 61400-3 Ed. 1: 2006
   Mean wind speed at hub height                    =   80.000 m/s
   Characteristic value of standard deviation       =    8.800 m/s
   Turbulence scale                                 =   42.000 m
   u-component integral scale                       =  340.200 m
   Coherency scale                                  =  340.200 m
   Characteristic value of hub turbulence intensity =   11.000%
   Gradient Richardson number                       =    0.000

   Wind profile type                                =  Power law on rotor disk, logarithmic elsewhere
   Power law exponent                               =    0.140
   Mean shear across rotor disk                     =    0.189 (m/s)/m
   Assumed rotor diameter                           =  165.000 m
   Surface roughness length                         =    0.030 m

   Nyquist frequency of turbulent wind field        =   10.000 Hz

   Number of time steps in the FFT                  =    72600
   Number of time steps output                      =    72600
   Number of points simulated                       =      169


Mean Flow Angles:

   Vertical   =   0.0 degrees
   Horizontal =   0.0 degrees

Mean Wind Speed Profile:

   Height    Wind Speed   Horizontal Angle  Vertical Angle  U-comp (X)   V-comp (Y)   W-comp (Z)
     (m)        (m/s)         (degrees)       (degrees)       (m/s)        (m/s)        (m/s)   
   ------    ----------   ----------------  --------------  ----------   ----------   ----------
    172.5       87.63            0.00            0.00         87.63         0.00         0.00
    158.8       86.62            0.00            0.00         86.62         0.00         0.00
    145.0       85.52            0.00            0.00         85.52         0.00         0.00
    131.2       84.34            0.00            0.00         84.34         0.00         0.00
    117.5       83.04            0.00            0.00         83.04         0.00         0.00
    103.8       81.61            0.00            0.00         81.61         0.00         0.00
     90.0       80.00            0.00            0.00         80.00         0.00         0.00
     76.2       78.16            0.00            0.00         78.16         0.00         0.00
     62.5       76.02            0.00            0.00         76.02         0.00         0.00
     48.8       73.42            0.00            0.00         73.42         0.00         0.00
     35.0       70.09            0.00            0.00         70.09         0.00         0.00
     21.2       65.36            0.00            0.00         65.36         0.00         0.00
      7.5       56.49            0.00            0.00         56.49         0.00         0.00


Harvested Random Seeds after Generation of the Random Numbers:

   2110154368 Harvested seed # 1
    967694281 Harvested seed # 2


Hub-Height Simulated Turbulence Statistical Summary:

   Type of Wind        Min (m/s)   Mean (m/s)    Max (m/s)  Sigma (m/s)       TI (%)
   ----------------    ---------   ----------    ---------  -----------       ------
   Longitudinal (u)        46.66        80.00       116.08        8.880       11.100
   Lateral (v)            -30.33         0.00        29.95        6.854        8.568
   Vertical (w)           -16.28        -0.00        16.99        4.108        5.135
   U component             46.66        80.00       116.08        8.880       11.100
   V component            -30.33         0.00        29.95        6.854        8.568
   W component            -16.28        -0.00        16.99        4.108        5.135
   Horizontal (U&V)        47.24        80.30       116.43        8.845       11.015
   Total                   47.27        80.40       116.45        8.835       10.988

                       Min Reynolds     Mean Reynolds    Max Reynolds    Correlation
   Product             Stress (m/s)^2   Stress (m/s)^2   Stress (m/s)^2  Coefficient
   ----------------    --------------   --------------   --------------  -----------
   u'w'                   -325.729            -0.005           435.468        -0.000
   u'v'                   -527.042            -3.263           495.832        -0.054
   v'w'                   -258.781             0.196           224.202         0.007


   Friction Velocity (Ustar)  =      0.071 m/s
   Maximum Instantaneous TKE  =    693.659 (m/s)^2
   Maximum Instantaneous CTKE =    303.236 (m/s)^2


Grid Point Variance Summary:

   Y-coord  -82.50  -68.75  -55.00  -41.25  -27.50  -13.75    0.00   13.75   27.50   41.25   55.00   68.75   82.50

   Height   Standard deviation at grid points for the u component:
   172.50    8.923   8.745   8.818   8.979   9.010   8.879   8.755   8.789   8.687   8.676   8.703   8.593   8.523
   158.75    8.799   8.782   8.868   8.880   8.786   8.891   8.755   8.825   8.800   8.800   8.777   8.669   8.556
   145.00    8.705   8.789   8.912   8.840   8.707   8.720   8.939   8.935   8.800   8.810   8.865   8.881   8.721
   131.25    8.695   8.805   8.901   8.848   8.807   8.804   8.844   8.889   8.800   8.865   8.802   8.808   8.758
   117.50    8.653   8.867   8.843   8.888   8.875   8.748   8.836   8.873   8.931   8.788   8.734   8.654   8.569
   103.75    8.806   8.976   8.842   8.844   8.932   8.864   8.905   8.796   8.795   8.744   8.686   8.730   8.660
    90.00    9.013   8.964   8.900   8.803   8.759   8.676   8.880   8.882   8.743   8.835   8.687   8.691   8.698
    76.25    8.899   8.908   8.956   8.830   8.759   8.678   8.774   8.707   8.681   8.711   8.735   8.708   8.768
    62.50    8.856   8.955   8.730   8.746   8.726   8.707   8.627   8.745   8.679   8.710   8.747   8.637   8.808
    48.75    8.758   8.823   8.805   8.725   8.728   8.773   8.575   8.542   8.568   8.607   8.606   8.702   8.707
    35.00    8.739   8.685   8.726   8.673   8.671   8.722   8.625   8.657   8.666   8.565   8.507   8.576   8.690
    21.25    8.659   8.608   8.641   8.645   8.685   8.637   8.564   8.579   8.501   8.518   8.535   8.599   8.590
     7.50    8.680   8.564   8.699   8.792   8.659   8.778   8.554   8.491   8.448   8.413   8.507   8.482   8.470

   Height   Standard deviation at grid points for the v component:
   172.50    6.854   6.854   6.854   6.854   6.854   6.854   6.854   6.854   6.854   6.854   6.854   6.854   6.854
   158.75    6.854   6.854   6.854   6.854   6.854   6.854   6.854   6.854   6.854   6.854   6.854   6.854   6.854
   145.00    6.854   6.854   6.854   6.854   6.854   6.854   6.854   6.854   6.854   6.854   6.854   6.854   6.854
   131.25    6.854   6.854   6.854   6.854   6.854   6.854   6.854   6.854   6.854   6.854   6.854   6.854   6.854
   117.50    6.854   6.854   6.854   6.854   6.854   6.854   6.854   6.854   6.854   6.854   6.854   6.854   6.854
   103.75    6.854   6.854   6.854   6.854   6.854   6.854   6.854   6.854   6.854   6.854   6.854   6.854   6.854
    90.00    6.854   6.854   6.854   6.854   6.854   6.854   6.854   6.854   6.854   6.854   6.854   6.854   6.854
    76.25    6.854   6.854   6.854   6.854   6.854   6.854   6.854   6.854   6.854   6.854   6.854   6.854   6.854
    62.50    6.854   6.854   6.854   6.854   6.854   6.854   6.854   6.854   6.854   6.854   6.854   6.854   6.854
    48.75    6.854   6.854   6.854   6.854   6.854   6.854   6.854   6.854   6.854   6.854   6.854   6.854   6.854
    35.00    6.854   6.854   6.854   6.854   6.854   6.854   6.854   6.854   6.854   6.854   6.854   6.854   6.854
    21.25    6.854   6.854   6.854   6.854   6.854   6.854   6.854   6.854   6.854   6.854   6.854   6.854   6.854
     7.50    6.854   6.854   6.854   6.854   6.854   6.854   6.854   6.854   6.854   6.854   6.854   6.854   6.854

   Height   Standard deviation at grid points for the w component:
   172.50    4.108   4.108   4.108   4.108   4.108   4.108   4.108   4.108   4.108   4.108   4.108   4.108   4.108
   158.75    4.108   4.108   4.108   4.108   4.108   4.108   4.108   4.108   4.108   4.108   4.108   4.108   4.108
   145.00    4.108   4.108   4.108   4.108   4.108   4.108   4.108   4.108   4.108   4.108   4.108   4.108   4.108
   131.25    4.108   4.108   4.108   4.108   4.108   4.108   4.108   4.108   4.108   4.108   4.108   4.108   4.108
   117.50    4.108   4.108   4.108   4.108   4.108   4.108   4.108   4.108   4.108   4.108   4.108   4.108   4.108
   103.75    4.108   4.108   4.108   4.108   4.108   4.108   4.108   4.108   4.108   4.108   4.108   4.108   4.108
    90.00    4.108   4.108   4.108   4.108   4.108   4.108   4.108   4.108   4.108   4.108   4.108   4.108   4.108
    76.25    4.108   4.108   4.108   4.108   4.108   4.108   4.108   4.108   4.108   4.108   4.108   4.108   4.108
    62.50    4.108   4.108   4.108   4.108   4.108   4.108   4.108   4.108   4.108   4.108   4.108   4.108   4.108
    48.75    4.108   4.108   4.108   4.108   4.108   4.108   4.108   4.108   4.108   4.108   4.108   4.108   4.108
    35.00    4.108   4.108   4.108   4.108   4.108   4.108   4.108   4.108   4.108   4.108   4.108   4.108   4.108
    21.25    4.108   4.108   4.108   4.108   4.108   4.108   4.108   4.108   4.108   4.108   4.108   4.108   4.108
     7.50    4.108   4.108   4.108   4.108   4.108   4.108   4.108   4.108   4.108   4.108   4.108   4.108   4.108

   Mean standard deviation across all grid points:
      u component:    8.742 m/s
      v component:    6.854 m/s
      w component:    4.108 m/s


U-component (X) statistics from the interpolated hub point:

   Mean =  80.0000 m/s
   TI   =  11.1001 %


Processing complete.  16 CPU seconds used.
