
This summary file was generated by TurbSim (v2.00.07a-bjj, 14-Jun-2016) on 23-Mar-2020 at 10:11:43.


Runtime Options:

        21  Random seed #1
        22  Random seed #2
         F  Output binary HH turbulence parameters?
         F  Output formatted turbulence parameters?
         F  Output AeroDyn HH files?
         T  Output AeroDyn FF files?
         F  Output BLADED FF files?
         F  Output tower data?
         F  Output formatted FF files?
         F  Output coherent turbulence time step file?
         T  Clockwise rotation when looking downwind?
 0 -  NONE  IEC turbulence models scaled to exact specified standard deviation


Turbine/Model Specifications:

        13  Vertical grid-point matrix dimension
        13  Horizontal grid-point matrix dimension
     0.050  Time step [seconds]
  3630.000  Analysis time [seconds]
  3630.000  Usable output time [seconds]
    90.000  Hub height [m]
   165.000  Grid height [m]
   165.000  Grid width [m]
     0.000  Vertical flow angle [degrees]
     0.000  Horizontal flow angle [degrees]


Meteorological Boundary Conditions:

    IECKAI  IEC Kaimal spectral model
         3  IEC standard: IEC 61400-3 Ed. 1: 2006
    11.000  Percent turbulence intensity, IEC 61400-3 Ed. 1: 2006
       NTM  IEC Normal Turbulence Model
       N/A  IEC Extreme Turbulence Model (ETM) "c" parameter [m/s]
       IEC  Wind profile type
    90.000  Reference height [m]
   100.000  Reference wind speed [m/s]
       N/A  Jet height [m]
     0.140  Power law exponent
     0.030  Surface roughness length [m]


Non-IEC Meteorological Boundary Conditions:

       N/A  Site latitude [degrees]
       N/A  Gradient Richardson number
       N/A  Friction or shear velocity [m/s]
       N/A  Mixing layer depth [m]
       N/A  Mean hub u'w' Reynolds stress
       N/A  Mean hub u'v' Reynolds stress
       N/A  Mean hub v'w' Reynolds stress


Spatial Coherence Models:

       IEC  u-component coherence model
      NONE  v-component coherence model
      NONE  w-component coherence model
(   12.000, 0.353E-03)  u-component coherence parameters
                   N/A  v-component coherence parameters
                   N/A  w-component coherence parameters
       N/A  Coherence exponent


You have requested that the following file(s) be generated:

   2_100.bts (AeroDyn/TurbSim full-field wind file)


Turbulence Simulation Scaling Parameter Summary:

   Turbulence model used                            =  IEC Kaimal
   Turbulence characteristic                        =  User-specified
   IEC standard                                     =  IEC 61400-3 Ed. 1: 2006
   Mean wind speed at hub height                    =  100.000 m/s
   Characteristic value of standard deviation       =   11.000 m/s
   Turbulence scale                                 =   42.000 m
   u-component integral scale                       =  340.200 m
   Coherency scale                                  =  340.200 m
   Characteristic value of hub turbulence intensity =   11.000%
   Gradient Richardson number                       =    0.000

   Wind profile type                                =  Power law on rotor disk, logarithmic elsewhere
   Power law exponent                               =    0.140
   Mean shear across rotor disk                     =    0.236 (m/s)/m
   Assumed rotor diameter                           =  165.000 m
   Surface roughness length                         =    0.030 m

   Nyquist frequency of turbulent wind field        =   10.000 Hz

   Number of time steps in the FFT                  =    72600
   Number of time steps output                      =    72600
   Number of points simulated                       =      169


Mean Flow Angles:

   Vertical   =   0.0 degrees
   Horizontal =   0.0 degrees

Mean Wind Speed Profile:

   Height    Wind Speed   Horizontal Angle  Vertical Angle  U-comp (X)   V-comp (Y)   W-comp (Z)
     (m)        (m/s)         (degrees)       (degrees)       (m/s)        (m/s)        (m/s)   
   ------    ----------   ----------------  --------------  ----------   ----------   ----------
    172.5      109.54            0.00            0.00        109.54         0.00         0.00
    158.8      108.27            0.00            0.00        108.27         0.00         0.00
    145.0      106.90            0.00            0.00        106.90         0.00         0.00
    131.2      105.42            0.00            0.00        105.42         0.00         0.00
    117.5      103.80            0.00            0.00        103.80         0.00         0.00
    103.8      102.01            0.00            0.00        102.01         0.00         0.00
     90.0      100.00            0.00            0.00        100.00         0.00         0.00
     76.2       97.71            0.00            0.00         97.71         0.00         0.00
     62.5       95.02            0.00            0.00         95.02         0.00         0.00
     48.8       91.77            0.00            0.00         91.77         0.00         0.00
     35.0       87.61            0.00            0.00         87.61         0.00         0.00
     21.2       81.70            0.00            0.00         81.70         0.00         0.00
      7.5       70.62            0.00            0.00         70.62         0.00         0.00


Harvested Random Seeds after Generation of the Random Numbers:

   1447454309 Harvested seed # 1
    711409709 Harvested seed # 2


Hub-Height Simulated Turbulence Statistical Summary:

   Type of Wind        Min (m/s)   Mean (m/s)    Max (m/s)  Sigma (m/s)       TI (%)
   ----------------    ---------   ----------    ---------  -----------       ------
   Longitudinal (u)        54.11       100.00       145.85       10.914       10.914
   Lateral (v)            -33.50         0.00        35.27        8.532        8.532
   Vertical (w)           -21.91        -0.00        23.31        5.077        5.077
   U component             54.11       100.00       145.85       10.914       10.914
   V component            -33.50         0.00        35.27        8.532        8.532
   W component            -21.91        -0.00        23.31        5.077        5.077
   Horizontal (U&V)        54.41       100.37       145.87       10.893       10.853
   Total                   54.47       100.50       145.92       10.880       10.827

                       Min Reynolds     Mean Reynolds    Max Reynolds    Correlation
   Product             Stress (m/s)^2   Stress (m/s)^2   Stress (m/s)^2  Coefficient
   ----------------    --------------   --------------   --------------  -----------
   u'w'                   -422.558             1.141           519.531         0.021
   u'v'                   -724.593             0.212           708.953         0.002
   v'w'                   -429.079            -0.392           397.520        -0.009


   Friction Velocity (Ustar)  =      1.068 m/s
   Maximum Instantaneous TKE  =   1072.602 (m/s)^2
   Maximum Instantaneous CTKE =    397.288 (m/s)^2


Grid Point Variance Summary:

   Y-coord  -82.50  -68.75  -55.00  -41.25  -27.50  -13.75    0.00   13.75   27.50   41.25   55.00   68.75   82.50

   Height   Standard deviation at grid points for the u component:
   172.50   11.118  11.061  11.064  10.899  10.834  10.689  10.725  10.625  10.722  10.653  10.718  10.852  10.793
   158.75   11.160  10.992  10.940  10.899  10.891  10.841  10.706  10.433  10.524  10.675  10.762  10.681  10.842
   145.00   11.166  10.962  10.868  10.837  10.829  10.767  10.703  10.546  10.576  10.620  10.690  10.819  10.868
   131.25   11.059  11.020  10.918  11.006  10.897  10.816  10.724  10.605  10.517  10.636  10.720  10.835  10.885
   117.50   11.072  11.103  11.114  11.022  10.975  10.962  10.810  10.850  10.655  10.729  10.793  10.867  11.004
   103.75   11.134  11.071  11.022  11.005  10.998  10.961  10.902  10.770  10.828  10.890  10.823  10.956  10.967
    90.00   11.037  11.163  11.054  11.027  11.003  11.008  10.914  10.836  10.884  10.977  10.946  10.981  10.826
    76.25   11.111  11.147  11.104  11.091  10.923  10.835  10.827  10.813  10.863  10.922  10.967  10.928  10.905
    62.50   11.012  11.004  11.187  11.046  10.971  10.875  10.803  10.857  10.735  10.832  10.958  10.999  10.838
    48.75   11.009  11.059  11.026  11.009  10.878  10.751  10.657  10.727  10.702  10.741  10.950  10.922  10.814
    35.00   10.956  10.952  10.959  11.122  11.060  10.828  10.685  10.749  10.722  10.777  10.879  10.690  10.673
    21.25   10.904  10.771  10.938  11.083  11.020  10.811  10.599  10.609  10.627  10.771  10.787  10.620  10.694
     7.50   10.830  10.845  10.991  11.140  10.841  10.716  10.688  10.729  10.630  10.668  10.738  10.729  10.846

   Height   Standard deviation at grid points for the v component:
   172.50    8.532   8.532   8.532   8.532   8.532   8.532   8.532   8.532   8.532   8.532   8.532   8.532   8.532
   158.75    8.532   8.532   8.532   8.532   8.532   8.532   8.532   8.532   8.532   8.532   8.532   8.532   8.532
   145.00    8.532   8.532   8.532   8.532   8.532   8.532   8.532   8.532   8.532   8.532   8.532   8.532   8.532
   131.25    8.532   8.532   8.532   8.532   8.532   8.532   8.532   8.532   8.532   8.532   8.532   8.532   8.532
   117.50    8.532   8.532   8.532   8.532   8.532   8.532   8.532   8.532   8.532   8.532   8.532   8.532   8.532
   103.75    8.532   8.532   8.532   8.532   8.532   8.532   8.532   8.532   8.532   8.532   8.532   8.532   8.532
    90.00    8.532   8.532   8.532   8.532   8.532   8.532   8.532   8.532   8.532   8.532   8.532   8.532   8.532
    76.25    8.532   8.532   8.532   8.532   8.532   8.532   8.532   8.532   8.532   8.532   8.532   8.532   8.532
    62.50    8.532   8.532   8.532   8.532   8.532   8.532   8.532   8.532   8.532   8.532   8.532   8.532   8.532
    48.75    8.532   8.532   8.532   8.532   8.532   8.532   8.532   8.532   8.532   8.532   8.532   8.532   8.532
    35.00    8.532   8.532   8.532   8.532   8.532   8.532   8.532   8.532   8.532   8.532   8.532   8.532   8.532
    21.25    8.532   8.532   8.532   8.532   8.532   8.532   8.532   8.532   8.532   8.532   8.532   8.532   8.532
     7.50    8.532   8.532   8.532   8.532   8.532   8.532   8.532   8.532   8.532   8.532   8.532   8.532   8.532

   Height   Standard deviation at grid points for the w component:
   172.50    5.077   5.077   5.077   5.077   5.077   5.077   5.077   5.077   5.077   5.077   5.077   5.077   5.077
   158.75    5.077   5.077   5.077   5.077   5.077   5.077   5.077   5.077   5.077   5.077   5.077   5.077   5.077
   145.00    5.077   5.077   5.077   5.077   5.077   5.077   5.077   5.077   5.077   5.077   5.077   5.077   5.077
   131.25    5.077   5.077   5.077   5.077   5.077   5.077   5.077   5.077   5.077   5.077   5.077   5.077   5.077
   117.50    5.077   5.077   5.077   5.077   5.077   5.077   5.077   5.077   5.077   5.077   5.077   5.077   5.077
   103.75    5.077   5.077   5.077   5.077   5.077   5.077   5.077   5.077   5.077   5.077   5.077   5.077   5.077
    90.00    5.077   5.077   5.077   5.077   5.077   5.077   5.077   5.077   5.077   5.077   5.077   5.077   5.077
    76.25    5.077   5.077   5.077   5.077   5.077   5.077   5.077   5.077   5.077   5.077   5.077   5.077   5.077
    62.50    5.077   5.077   5.077   5.077   5.077   5.077   5.077   5.077   5.077   5.077   5.077   5.077   5.077
    48.75    5.077   5.077   5.077   5.077   5.077   5.077   5.077   5.077   5.077   5.077   5.077   5.077   5.077
    35.00    5.077   5.077   5.077   5.077   5.077   5.077   5.077   5.077   5.077   5.077   5.077   5.077   5.077
    21.25    5.077   5.077   5.077   5.077   5.077   5.077   5.077   5.077   5.077   5.077   5.077   5.077   5.077
     7.50    5.077   5.077   5.077   5.077   5.077   5.077   5.077   5.077   5.077   5.077   5.077   5.077   5.077

   Mean standard deviation across all grid points:
      u component:   10.866 m/s
      v component:    8.532 m/s
      w component:    5.077 m/s


U-component (X) statistics from the interpolated hub point:

   Mean = 100.0000 m/s
   TI   =  10.9139 %


Processing complete.  15.812 CPU seconds used.
