
This summary file was generated by TurbSim (v2.00.07a-bjj, 14-Jun-2016) on 23-Mar-2020 at 09:52:05.


Runtime Options:

        21  Random seed #1
        22  Random seed #2
         F  Output binary HH turbulence parameters?
         F  Output formatted turbulence parameters?
         F  Output AeroDyn HH files?
         T  Output AeroDyn FF files?
         F  Output BLADED FF files?
         F  Output tower data?
         F  Output formatted FF files?
         F  Output coherent turbulence time step file?
         T  Clockwise rotation when looking downwind?
 0 -  NONE  IEC turbulence models scaled to exact specified standard deviation


Turbine/Model Specifications:

        13  Vertical grid-point matrix dimension
        13  Horizontal grid-point matrix dimension
     0.050  Time step [seconds]
  3630.000  Analysis time [seconds]
  3630.000  Usable output time [seconds]
    90.000  Hub height [m]
   165.000  Grid height [m]
   165.000  Grid width [m]
     0.000  Vertical flow angle [degrees]
     0.000  Horizontal flow angle [degrees]


Meteorological Boundary Conditions:

    IECKAI  IEC Kaimal spectral model
         3  IEC standard: IEC 61400-3 Ed. 1: 2006
    11.000  Percent turbulence intensity, IEC 61400-3 Ed. 1: 2006
       NTM  IEC Normal Turbulence Model
       N/A  IEC Extreme Turbulence Model (ETM) "c" parameter [m/s]
       IEC  Wind profile type
    90.000  Reference height [m]
    30.000  Reference wind speed [m/s]
       N/A  Jet height [m]
     0.140  Power law exponent
     0.030  Surface roughness length [m]


Non-IEC Meteorological Boundary Conditions:

       N/A  Site latitude [degrees]
       N/A  Gradient Richardson number
       N/A  Friction or shear velocity [m/s]
       N/A  Mixing layer depth [m]
       N/A  Mean hub u'w' Reynolds stress
       N/A  Mean hub u'v' Reynolds stress
       N/A  Mean hub v'w' Reynolds stress


Spatial Coherence Models:

       IEC  u-component coherence model
      NONE  v-component coherence model
      NONE  w-component coherence model
(   12.000, 0.353E-03)  u-component coherence parameters
                   N/A  v-component coherence parameters
                   N/A  w-component coherence parameters
       N/A  Coherence exponent


You have requested that the following file(s) be generated:

   2_30.bts (AeroDyn/TurbSim full-field wind file)


Turbulence Simulation Scaling Parameter Summary:

   Turbulence model used                            =  IEC Kaimal
   Turbulence characteristic                        =  User-specified
   IEC standard                                     =  IEC 61400-3 Ed. 1: 2006
   Mean wind speed at hub height                    =   30.000 m/s
   Characteristic value of standard deviation       =    3.300 m/s
   Turbulence scale                                 =   42.000 m
   u-component integral scale                       =  340.200 m
   Coherency scale                                  =  340.200 m
   Characteristic value of hub turbulence intensity =   11.000%
   Gradient Richardson number                       =    0.000

   Wind profile type                                =  Power law on rotor disk, logarithmic elsewhere
   Power law exponent                               =    0.140
   Mean shear across rotor disk                     =    0.071 (m/s)/m
   Assumed rotor diameter                           =  165.000 m
   Surface roughness length                         =    0.030 m

   Nyquist frequency of turbulent wind field        =   10.000 Hz

   Number of time steps in the FFT                  =    72600
   Number of time steps output                      =    72600
   Number of points simulated                       =      169


Mean Flow Angles:

   Vertical   =   0.0 degrees
   Horizontal =   0.0 degrees

Mean Wind Speed Profile:

   Height    Wind Speed   Horizontal Angle  Vertical Angle  U-comp (X)   V-comp (Y)   W-comp (Z)
     (m)        (m/s)         (degrees)       (degrees)       (m/s)        (m/s)        (m/s)   
   ------    ----------   ----------------  --------------  ----------   ----------   ----------
    172.5       32.86            0.00            0.00         32.86         0.00         0.00
    158.8       32.48            0.00            0.00         32.48         0.00         0.00
    145.0       32.07            0.00            0.00         32.07         0.00         0.00
    131.2       31.63            0.00            0.00         31.63         0.00         0.00
    117.5       31.14            0.00            0.00         31.14         0.00         0.00
    103.8       30.60            0.00            0.00         30.60         0.00         0.00
     90.0       30.00            0.00            0.00         30.00         0.00         0.00
     76.2       29.31            0.00            0.00         29.31         0.00         0.00
     62.5       28.51            0.00            0.00         28.51         0.00         0.00
     48.8       27.53            0.00            0.00         27.53         0.00         0.00
     35.0       26.28            0.00            0.00         26.28         0.00         0.00
     21.2       24.51            0.00            0.00         24.51         0.00         0.00
      7.5       21.19            0.00            0.00         21.19         0.00         0.00


Harvested Random Seeds after Generation of the Random Numbers:

   1447454309 Harvested seed # 1
    711409709 Harvested seed # 2


Hub-Height Simulated Turbulence Statistical Summary:

   Type of Wind        Min (m/s)   Mean (m/s)    Max (m/s)  Sigma (m/s)       TI (%)
   ----------------    ---------   ----------    ---------  -----------       ------
   Longitudinal (u)        15.68        30.00        42.31        3.287       10.955
   Lateral (v)            -10.62         0.00        10.92        2.602        8.672
   Vertical (w)            -6.91        -0.00         7.25        1.593        5.308
   U component             15.68        30.00        42.31        3.287       10.955
   V component            -10.62         0.00        10.92        2.602        8.672
   W component             -6.91        -0.00         7.25        1.593        5.308
   Horizontal (U&V)        15.77        30.11        42.46        3.281       10.896
   Total                   15.78        30.16        42.47        3.278       10.869

                       Min Reynolds     Mean Reynolds    Max Reynolds    Correlation
   Product             Stress (m/s)^2   Stress (m/s)^2   Stress (m/s)^2  Coefficient
   ----------------    --------------   --------------   --------------  -----------
   u'w'                    -40.836             0.163            53.772         0.031
   u'v'                    -59.865             0.281            74.358         0.033
   v'w'                    -37.013            -0.094            44.863        -0.023


   Friction Velocity (Ustar)  =      0.404 m/s
   Maximum Instantaneous TKE  =    104.045 (m/s)^2
   Maximum Instantaneous CTKE =     38.054 (m/s)^2


Grid Point Variance Summary:

   Y-coord  -82.50  -68.75  -55.00  -41.25  -27.50  -13.75    0.00   13.75   27.50   41.25   55.00   68.75   82.50

   Height   Standard deviation at grid points for the u component:
   172.50    3.355   3.276   3.276   3.239   3.196   3.087   3.111   3.027   3.057   3.045   3.160   3.250   3.188
   158.75    3.385   3.316   3.301   3.253   3.232   3.217   3.126   2.962   2.990   3.095   3.174   3.173   3.227
   145.00    3.379   3.287   3.240   3.226   3.183   3.180   3.153   3.078   3.090   3.139   3.156   3.228   3.238
   131.25    3.366   3.329   3.275   3.296   3.232   3.169   3.144   3.133   3.126   3.165   3.186   3.226   3.216
   117.50    3.353   3.384   3.382   3.323   3.263   3.266   3.219   3.277   3.190   3.182   3.181   3.209   3.300
   103.75    3.389   3.360   3.314   3.345   3.296   3.290   3.311   3.222   3.259   3.258   3.225   3.266   3.289
    90.00    3.358   3.437   3.347   3.367   3.332   3.338   3.287   3.258   3.262   3.330   3.339   3.327   3.249
    76.25    3.395   3.443   3.374   3.396   3.305   3.272   3.276   3.262   3.271   3.313   3.345   3.332   3.328
    62.50    3.338   3.356   3.413   3.360   3.339   3.293   3.252   3.293   3.222   3.288   3.342   3.370   3.298
    48.75    3.320   3.368   3.341   3.350   3.334   3.250   3.171   3.206   3.195   3.210   3.311   3.270   3.214
    35.00    3.272   3.300   3.294   3.377   3.368   3.274   3.193   3.229   3.185   3.213   3.270   3.139   3.157
    21.25    3.261   3.185   3.274   3.322   3.305   3.239   3.145   3.130   3.135   3.221   3.222   3.128   3.182
     7.50    3.268   3.238   3.291   3.360   3.217   3.153   3.148   3.154   3.149   3.171   3.180   3.181   3.278

   Height   Standard deviation at grid points for the v component:
   172.50    2.602   2.602   2.602   2.602   2.602   2.602   2.602   2.602   2.602   2.602   2.602   2.602   2.602
   158.75    2.602   2.602   2.602   2.602   2.602   2.602   2.602   2.602   2.602   2.602   2.602   2.602   2.602
   145.00    2.602   2.602   2.602   2.602   2.602   2.602   2.602   2.602   2.602   2.602   2.602   2.602   2.602
   131.25    2.602   2.602   2.602   2.602   2.602   2.602   2.602   2.602   2.602   2.602   2.602   2.602   2.602
   117.50    2.602   2.602   2.602   2.602   2.602   2.602   2.602   2.602   2.602   2.602   2.602   2.602   2.602
   103.75    2.602   2.602   2.602   2.602   2.602   2.602   2.602   2.602   2.602   2.602   2.602   2.602   2.602
    90.00    2.602   2.602   2.602   2.602   2.602   2.602   2.602   2.602   2.602   2.602   2.602   2.602   2.602
    76.25    2.602   2.602   2.602   2.602   2.602   2.602   2.602   2.602   2.602   2.602   2.602   2.602   2.602
    62.50    2.602   2.602   2.602   2.602   2.602   2.602   2.602   2.602   2.602   2.602   2.602   2.602   2.602
    48.75    2.602   2.602   2.602   2.602   2.602   2.602   2.602   2.602   2.602   2.602   2.602   2.602   2.602
    35.00    2.602   2.602   2.602   2.602   2.602   2.602   2.602   2.602   2.602   2.602   2.602   2.602   2.602
    21.25    2.602   2.602   2.602   2.602   2.602   2.602   2.602   2.602   2.602   2.602   2.602   2.602   2.602
     7.50    2.602   2.602   2.602   2.602   2.602   2.602   2.602   2.602   2.602   2.602   2.602   2.602   2.602

   Height   Standard deviation at grid points for the w component:
   172.50    1.593   1.593   1.593   1.593   1.593   1.593   1.593   1.593   1.593   1.593   1.593   1.593   1.593
   158.75    1.593   1.593   1.593   1.593   1.593   1.593   1.593   1.593   1.593   1.593   1.593   1.593   1.593
   145.00    1.593   1.593   1.593   1.593   1.593   1.593   1.593   1.593   1.593   1.593   1.593   1.593   1.593
   131.25    1.593   1.593   1.593   1.593   1.593   1.593   1.593   1.593   1.593   1.593   1.593   1.593   1.593
   117.50    1.593   1.593   1.593   1.593   1.593   1.593   1.593   1.593   1.593   1.593   1.593   1.593   1.593
   103.75    1.593   1.593   1.593   1.593   1.593   1.593   1.593   1.593   1.593   1.593   1.593   1.593   1.593
    90.00    1.593   1.593   1.593   1.593   1.593   1.593   1.593   1.593   1.593   1.593   1.593   1.593   1.593
    76.25    1.593   1.593   1.593   1.593   1.593   1.593   1.593   1.593   1.593   1.593   1.593   1.593   1.593
    62.50    1.593   1.593   1.593   1.593   1.593   1.593   1.593   1.593   1.593   1.593   1.593   1.593   1.593
    48.75    1.593   1.593   1.593   1.593   1.593   1.593   1.593   1.593   1.593   1.593   1.593   1.593   1.593
    35.00    1.593   1.593   1.593   1.593   1.593   1.593   1.593   1.593   1.593   1.593   1.593   1.593   1.593
    21.25    1.593   1.593   1.593   1.593   1.593   1.593   1.593   1.593   1.593   1.593   1.593   1.593   1.593
     7.50    1.593   1.593   1.593   1.593   1.593   1.593   1.593   1.593   1.593   1.593   1.593   1.593   1.593

   Mean standard deviation across all grid points:
      u component:    3.252 m/s
      v component:    2.602 m/s
      w component:    1.593 m/s


U-component (X) statistics from the interpolated hub point:

   Mean =  30.0000 m/s
   TI   =  10.9550 %


Processing complete.  16.375 CPU seconds used.
