
This summary file was generated by TurbSim (v2.00.07a-bjj, 14-Jun-2016) on 23-Mar-2020 at 09:52:51.


Runtime Options:

        21  Random seed #1
        22  Random seed #2
         F  Output binary HH turbulence parameters?
         F  Output formatted turbulence parameters?
         F  Output AeroDyn HH files?
         T  Output AeroDyn FF files?
         F  Output BLADED FF files?
         F  Output tower data?
         F  Output formatted FF files?
         F  Output coherent turbulence time step file?
         T  Clockwise rotation when looking downwind?
 0 -  NONE  IEC turbulence models scaled to exact specified standard deviation


Turbine/Model Specifications:

        13  Vertical grid-point matrix dimension
        13  Horizontal grid-point matrix dimension
     0.050  Time step [seconds]
  3630.000  Analysis time [seconds]
  3630.000  Usable output time [seconds]
    90.000  Hub height [m]
   165.000  Grid height [m]
   165.000  Grid width [m]
     0.000  Vertical flow angle [degrees]
     0.000  Horizontal flow angle [degrees]


Meteorological Boundary Conditions:

    IECKAI  IEC Kaimal spectral model
         3  IEC standard: IEC 61400-3 Ed. 1: 2006
    11.000  Percent turbulence intensity, IEC 61400-3 Ed. 1: 2006
       NTM  IEC Normal Turbulence Model
       N/A  IEC Extreme Turbulence Model (ETM) "c" parameter [m/s]
       IEC  Wind profile type
    90.000  Reference height [m]
    40.000  Reference wind speed [m/s]
       N/A  Jet height [m]
     0.140  Power law exponent
     0.030  Surface roughness length [m]


Non-IEC Meteorological Boundary Conditions:

       N/A  Site latitude [degrees]
       N/A  Gradient Richardson number
       N/A  Friction or shear velocity [m/s]
       N/A  Mixing layer depth [m]
       N/A  Mean hub u'w' Reynolds stress
       N/A  Mean hub u'v' Reynolds stress
       N/A  Mean hub v'w' Reynolds stress


Spatial Coherence Models:

       IEC  u-component coherence model
      NONE  v-component coherence model
      NONE  w-component coherence model
(   12.000, 0.353E-03)  u-component coherence parameters
                   N/A  v-component coherence parameters
                   N/A  w-component coherence parameters
       N/A  Coherence exponent


You have requested that the following file(s) be generated:

   2_40.bts (AeroDyn/TurbSim full-field wind file)


Turbulence Simulation Scaling Parameter Summary:

   Turbulence model used                            =  IEC Kaimal
   Turbulence characteristic                        =  User-specified
   IEC standard                                     =  IEC 61400-3 Ed. 1: 2006
   Mean wind speed at hub height                    =   40.000 m/s
   Characteristic value of standard deviation       =    4.400 m/s
   Turbulence scale                                 =   42.000 m
   u-component integral scale                       =  340.200 m
   Coherency scale                                  =  340.200 m
   Characteristic value of hub turbulence intensity =   11.000%
   Gradient Richardson number                       =    0.000

   Wind profile type                                =  Power law on rotor disk, logarithmic elsewhere
   Power law exponent                               =    0.140
   Mean shear across rotor disk                     =    0.094 (m/s)/m
   Assumed rotor diameter                           =  165.000 m
   Surface roughness length                         =    0.030 m

   Nyquist frequency of turbulent wind field        =   10.000 Hz

   Number of time steps in the FFT                  =    72600
   Number of time steps output                      =    72600
   Number of points simulated                       =      169


Mean Flow Angles:

   Vertical   =   0.0 degrees
   Horizontal =   0.0 degrees

Mean Wind Speed Profile:

   Height    Wind Speed   Horizontal Angle  Vertical Angle  U-comp (X)   V-comp (Y)   W-comp (Z)
     (m)        (m/s)         (degrees)       (degrees)       (m/s)        (m/s)        (m/s)   
   ------    ----------   ----------------  --------------  ----------   ----------   ----------
    172.5       43.81            0.00            0.00         43.81         0.00         0.00
    158.8       43.31            0.00            0.00         43.31         0.00         0.00
    145.0       42.76            0.00            0.00         42.76         0.00         0.00
    131.2       42.17            0.00            0.00         42.17         0.00         0.00
    117.5       41.52            0.00            0.00         41.52         0.00         0.00
    103.8       40.80            0.00            0.00         40.80         0.00         0.00
     90.0       40.00            0.00            0.00         40.00         0.00         0.00
     76.2       39.08            0.00            0.00         39.08         0.00         0.00
     62.5       38.01            0.00            0.00         38.01         0.00         0.00
     48.8       36.71            0.00            0.00         36.71         0.00         0.00
     35.0       35.05            0.00            0.00         35.05         0.00         0.00
     21.2       32.68            0.00            0.00         32.68         0.00         0.00
      7.5       28.25            0.00            0.00         28.25         0.00         0.00


Harvested Random Seeds after Generation of the Random Numbers:

   1447454309 Harvested seed # 1
    711409709 Harvested seed # 2


Hub-Height Simulated Turbulence Statistical Summary:

   Type of Wind        Min (m/s)   Mean (m/s)    Max (m/s)  Sigma (m/s)       TI (%)
   ----------------    ---------   ----------    ---------  -----------       ------
   Longitudinal (u)        20.93        40.00        56.77        4.392       10.980
   Lateral (v)            -13.98         0.00        14.50        3.460        8.649
   Vertical (w)            -9.17        -0.00         9.64        2.107        5.269
   U component             20.93        40.00        56.77        4.392       10.980
   V component            -13.98         0.00        14.50        3.460        8.649
   W component             -9.17        -0.00         9.64        2.107        5.269
   Horizontal (U&V)        21.04        40.15        56.94        4.384       10.919
   Total                   21.06        40.21        56.95        4.379       10.892

                       Min Reynolds     Mean Reynolds    Max Reynolds    Correlation
   Product             Stress (m/s)^2   Stress (m/s)^2   Stress (m/s)^2  Coefficient
   ----------------    --------------   --------------   --------------  -----------
   u'w'                    -72.615             0.261            92.390         0.028
   u'v'                   -114.400             0.373           129.101         0.025
   v'w'                    -64.033            -0.132            74.972        -0.018


   Friction Velocity (Ustar)  =      0.510 m/s
   Maximum Instantaneous TKE  =    184.512 (m/s)^2
   Maximum Instantaneous CTKE =     65.538 (m/s)^2


Grid Point Variance Summary:

   Y-coord  -82.50  -68.75  -55.00  -41.25  -27.50  -13.75    0.00   13.75   27.50   41.25   55.00   68.75   82.50

   Height   Standard deviation at grid points for the u component:
   172.50    4.482   4.402   4.400   4.346   4.293   4.167   4.193   4.106   4.145   4.132   4.239   4.344   4.281
   158.75    4.512   4.426   4.404   4.363   4.336   4.315   4.208   4.016   4.055   4.180   4.264   4.251   4.327
   145.00    4.511   4.394   4.336   4.323   4.282   4.268   4.235   4.145   4.160   4.207   4.230   4.321   4.337
   131.25    4.483   4.443   4.376   4.409   4.332   4.263   4.231   4.201   4.176   4.232   4.261   4.318   4.323
   117.50    4.466   4.502   4.506   4.439   4.376   4.375   4.312   4.373   4.262   4.266   4.273   4.309   4.417
   103.75    4.509   4.471   4.427   4.448   4.405   4.395   4.409   4.309   4.353   4.359   4.324   4.378   4.402
    90.00    4.469   4.559   4.457   4.475   4.434   4.448   4.392   4.355   4.368   4.448   4.449   4.442   4.351
    76.25    4.514   4.563   4.492   4.510   4.405   4.368   4.373   4.363   4.378   4.418   4.456   4.439   4.435
    62.50    4.447   4.464   4.538   4.474   4.446   4.395   4.345   4.393   4.314   4.382   4.446   4.481   4.397
    48.75    4.431   4.488   4.456   4.462   4.430   4.338   4.251   4.292   4.276   4.294   4.415   4.376   4.317
    35.00    4.384   4.409   4.408   4.507   4.487   4.365   4.278   4.317   4.266   4.298   4.368   4.224   4.242
    21.25    4.364   4.276   4.384   4.450   4.424   4.332   4.218   4.206   4.208   4.299   4.309   4.200   4.268
     7.50    4.355   4.333   4.406   4.491   4.318   4.240   4.229   4.243   4.217   4.243   4.268   4.268   4.374

   Height   Standard deviation at grid points for the v component:
   172.50    3.460   3.460   3.460   3.460   3.460   3.460   3.460   3.460   3.460   3.460   3.460   3.460   3.460
   158.75    3.460   3.460   3.460   3.460   3.460   3.460   3.460   3.460   3.460   3.460   3.460   3.460   3.460
   145.00    3.460   3.460   3.460   3.460   3.460   3.460   3.460   3.460   3.460   3.460   3.460   3.460   3.460
   131.25    3.460   3.460   3.460   3.460   3.460   3.460   3.460   3.460   3.460   3.460   3.460   3.460   3.460
   117.50    3.460   3.460   3.460   3.460   3.460   3.460   3.460   3.460   3.460   3.460   3.460   3.460   3.460
   103.75    3.460   3.460   3.460   3.460   3.460   3.460   3.460   3.460   3.460   3.460   3.460   3.460   3.460
    90.00    3.460   3.460   3.460   3.460   3.460   3.460   3.460   3.460   3.460   3.460   3.460   3.460   3.460
    76.25    3.460   3.460   3.460   3.460   3.460   3.460   3.460   3.460   3.460   3.460   3.460   3.460   3.460
    62.50    3.460   3.460   3.460   3.460   3.460   3.460   3.460   3.460   3.460   3.460   3.460   3.460   3.460
    48.75    3.460   3.460   3.460   3.460   3.460   3.460   3.460   3.460   3.460   3.460   3.460   3.460   3.460
    35.00    3.460   3.460   3.460   3.460   3.460   3.460   3.460   3.460   3.460   3.460   3.460   3.460   3.460
    21.25    3.460   3.460   3.460   3.460   3.460   3.460   3.460   3.460   3.460   3.460   3.460   3.460   3.460
     7.50    3.460   3.460   3.460   3.460   3.460   3.460   3.460   3.460   3.460   3.460   3.460   3.460   3.460

   Height   Standard deviation at grid points for the w component:
   172.50    2.107   2.107   2.107   2.107   2.107   2.107   2.107   2.107   2.107   2.107   2.107   2.107   2.107
   158.75    2.107   2.107   2.107   2.107   2.107   2.107   2.107   2.107   2.107   2.107   2.107   2.107   2.107
   145.00    2.107   2.107   2.107   2.107   2.107   2.107   2.107   2.107   2.107   2.107   2.107   2.107   2.107
   131.25    2.107   2.107   2.107   2.107   2.107   2.107   2.107   2.107   2.107   2.107   2.107   2.107   2.107
   117.50    2.107   2.107   2.107   2.107   2.107   2.107   2.107   2.107   2.107   2.107   2.107   2.107   2.107
   103.75    2.107   2.107   2.107   2.107   2.107   2.107   2.107   2.107   2.107   2.107   2.107   2.107   2.107
    90.00    2.107   2.107   2.107   2.107   2.107   2.107   2.107   2.107   2.107   2.107   2.107   2.107   2.107
    76.25    2.107   2.107   2.107   2.107   2.107   2.107   2.107   2.107   2.107   2.107   2.107   2.107   2.107
    62.50    2.107   2.107   2.107   2.107   2.107   2.107   2.107   2.107   2.107   2.107   2.107   2.107   2.107
    48.75    2.107   2.107   2.107   2.107   2.107   2.107   2.107   2.107   2.107   2.107   2.107   2.107   2.107
    35.00    2.107   2.107   2.107   2.107   2.107   2.107   2.107   2.107   2.107   2.107   2.107   2.107   2.107
    21.25    2.107   2.107   2.107   2.107   2.107   2.107   2.107   2.107   2.107   2.107   2.107   2.107   2.107
     7.50    2.107   2.107   2.107   2.107   2.107   2.107   2.107   2.107   2.107   2.107   2.107   2.107   2.107

   Mean standard deviation across all grid points:
      u component:    4.350 m/s
      v component:    3.460 m/s
      w component:    2.107 m/s


U-component (X) statistics from the interpolated hub point:

   Mean =  40.0000 m/s
   TI   =  10.9798 %


Processing complete.  16.25 CPU seconds used.
