
This summary file was generated by TurbSim (v2.00.07a-bjj, 14-Jun-2016) on 23-Mar-2020 at 10:06:36.


Runtime Options:

        21  Random seed #1
        22  Random seed #2
         F  Output binary HH turbulence parameters?
         F  Output formatted turbulence parameters?
         F  Output AeroDyn HH files?
         T  Output AeroDyn FF files?
         F  Output BLADED FF files?
         F  Output tower data?
         F  Output formatted FF files?
         F  Output coherent turbulence time step file?
         T  Clockwise rotation when looking downwind?
 0 -  NONE  IEC turbulence models scaled to exact specified standard deviation


Turbine/Model Specifications:

        13  Vertical grid-point matrix dimension
        13  Horizontal grid-point matrix dimension
     0.050  Time step [seconds]
  3630.000  Analysis time [seconds]
  3630.000  Usable output time [seconds]
    90.000  Hub height [m]
   165.000  Grid height [m]
   165.000  Grid width [m]
     0.000  Vertical flow angle [degrees]
     0.000  Horizontal flow angle [degrees]


Meteorological Boundary Conditions:

    IECKAI  IEC Kaimal spectral model
         3  IEC standard: IEC 61400-3 Ed. 1: 2006
    11.000  Percent turbulence intensity, IEC 61400-3 Ed. 1: 2006
       NTM  IEC Normal Turbulence Model
       N/A  IEC Extreme Turbulence Model (ETM) "c" parameter [m/s]
       IEC  Wind profile type
    90.000  Reference height [m]
    55.000  Reference wind speed [m/s]
       N/A  Jet height [m]
     0.140  Power law exponent
     0.030  Surface roughness length [m]


Non-IEC Meteorological Boundary Conditions:

       N/A  Site latitude [degrees]
       N/A  Gradient Richardson number
       N/A  Friction or shear velocity [m/s]
       N/A  Mixing layer depth [m]
       N/A  Mean hub u'w' Reynolds stress
       N/A  Mean hub u'v' Reynolds stress
       N/A  Mean hub v'w' Reynolds stress


Spatial Coherence Models:

       IEC  u-component coherence model
      NONE  v-component coherence model
      NONE  w-component coherence model
(   12.000, 0.353E-03)  u-component coherence parameters
                   N/A  v-component coherence parameters
                   N/A  w-component coherence parameters
       N/A  Coherence exponent


You have requested that the following file(s) be generated:

   2_55.bts (AeroDyn/TurbSim full-field wind file)


Turbulence Simulation Scaling Parameter Summary:

   Turbulence model used                            =  IEC Kaimal
   Turbulence characteristic                        =  User-specified
   IEC standard                                     =  IEC 61400-3 Ed. 1: 2006
   Mean wind speed at hub height                    =   55.000 m/s
   Characteristic value of standard deviation       =    6.050 m/s
   Turbulence scale                                 =   42.000 m
   u-component integral scale                       =  340.200 m
   Coherency scale                                  =  340.200 m
   Characteristic value of hub turbulence intensity =   11.000%
   Gradient Richardson number                       =    0.000

   Wind profile type                                =  Power law on rotor disk, logarithmic elsewhere
   Power law exponent                               =    0.140
   Mean shear across rotor disk                     =    0.130 (m/s)/m
   Assumed rotor diameter                           =  165.000 m
   Surface roughness length                         =    0.030 m

   Nyquist frequency of turbulent wind field        =   10.000 Hz

   Number of time steps in the FFT                  =    72600
   Number of time steps output                      =    72600
   Number of points simulated                       =      169


Mean Flow Angles:

   Vertical   =   0.0 degrees
   Horizontal =   0.0 degrees

Mean Wind Speed Profile:

   Height    Wind Speed   Horizontal Angle  Vertical Angle  U-comp (X)   V-comp (Y)   W-comp (Z)
     (m)        (m/s)         (degrees)       (degrees)       (m/s)        (m/s)        (m/s)   
   ------    ----------   ----------------  --------------  ----------   ----------   ----------
    172.5       60.24            0.00            0.00         60.24         0.00         0.00
    158.8       59.55            0.00            0.00         59.55         0.00         0.00
    145.0       58.80            0.00            0.00         58.80         0.00         0.00
    131.2       57.98            0.00            0.00         57.98         0.00         0.00
    117.5       57.09            0.00            0.00         57.09         0.00         0.00
    103.8       56.11            0.00            0.00         56.11         0.00         0.00
     90.0       55.00            0.00            0.00         55.00         0.00         0.00
     76.2       53.74            0.00            0.00         53.74         0.00         0.00
     62.5       52.26            0.00            0.00         52.26         0.00         0.00
     48.8       50.48            0.00            0.00         50.48         0.00         0.00
     35.0       48.19            0.00            0.00         48.19         0.00         0.00
     21.2       44.94            0.00            0.00         44.94         0.00         0.00
      7.5       38.84            0.00            0.00         38.84         0.00         0.00


Harvested Random Seeds after Generation of the Random Numbers:

   1447454309 Harvested seed # 1
    711409709 Harvested seed # 2


Hub-Height Simulated Turbulence Statistical Summary:

   Type of Wind        Min (m/s)   Mean (m/s)    Max (m/s)  Sigma (m/s)       TI (%)
   ----------------    ---------   ----------    ---------  -----------       ------
   Longitudinal (u)        28.94        55.00        79.34        6.043       10.987
   Lateral (v)            -18.96         0.00        19.80        4.739        8.617
   Vertical (w)           -12.48        -0.00        13.15        2.868        5.215
   U component             28.94        55.00        79.34        6.043       10.987
   V component            -18.96         0.00        19.80        4.739        8.617
   W component            -12.48        -0.00        13.15        2.868        5.215
   Horizontal (U&V)        29.10        55.21        79.34        6.032       10.926
   Total                   29.13        55.28        79.36        6.025       10.899

                       Min Reynolds     Mean Reynolds    Max Reynolds    Correlation
   Product             Stress (m/s)^2   Stress (m/s)^2   Stress (m/s)^2  Coefficient
   ----------------    --------------   --------------   --------------  -----------
   u'w'                   -134.554             0.439           169.264         0.025
   u'v'                   -226.274             0.463           238.857         0.016
   v'w'                   -122.369            -0.191           129.977        -0.014


   Friction Velocity (Ustar)  =      0.663 m/s
   Maximum Instantaneous TKE  =    344.730 (m/s)^2
   Maximum Instantaneous CTKE =    125.486 (m/s)^2


Grid Point Variance Summary:

   Y-coord  -82.50  -68.75  -55.00  -41.25  -27.50  -13.75    0.00   13.75   27.50   41.25   55.00   68.75   82.50

   Height   Standard deviation at grid points for the u component:
   172.50    6.157   6.083   6.079   5.999   5.937   5.799   5.828   5.740   5.793   5.771   5.864   5.984   5.921
   158.75    6.187   6.080   6.049   6.013   5.987   5.959   5.840   5.619   5.672   5.813   5.899   5.867   5.970
   145.00    6.195   6.046   5.974   5.962   5.928   5.901   5.861   5.753   5.771   5.815   5.849   5.958   5.983
   131.25    6.143   6.102   6.021   6.073   5.982   5.907   5.863   5.809   5.761   5.838   5.879   5.958   5.979
   117.50    6.130   6.168   6.177   6.103   6.041   6.035   5.951   6.011   5.871   5.892   5.913   5.960   6.084
   103.75    6.181   6.133   6.090   6.099   6.066   6.050   6.048   5.939   5.988   6.005   5.966   6.040   6.062
    90.00    6.128   6.230   6.119   6.128   6.084   6.106   6.043   5.995   6.017   6.105   6.096   6.099   5.990
    76.25    6.183   6.229   6.160   6.171   6.046   6.002   6.006   6.000   6.024   6.064   6.106   6.082   6.076
    62.50    6.104   6.116   6.218   6.134   6.094   6.035   5.973   6.029   5.938   6.012   6.089   6.128   6.028
    48.75    6.091   6.154   6.118   6.118   6.060   5.958   5.863   5.915   5.893   5.915   6.060   6.025   5.956
    35.00    6.041   6.061   6.065   6.183   6.149   5.991   5.893   5.939   5.887   5.924   6.006   5.846   5.861
    21.25    6.011   5.907   6.038   6.127   6.090   5.963   5.821   5.815   5.819   5.919   5.936   5.808   5.886
     7.50    5.981   5.969   6.067   6.172   5.961   5.867   5.849   5.874   5.822   5.854   5.897   5.893   6.007

   Height   Standard deviation at grid points for the v component:
   172.50    4.739   4.739   4.739   4.739   4.739   4.739   4.739   4.739   4.739   4.739   4.739   4.739   4.739
   158.75    4.739   4.739   4.739   4.739   4.739   4.739   4.739   4.739   4.739   4.739   4.739   4.739   4.739
   145.00    4.739   4.739   4.739   4.739   4.739   4.739   4.739   4.739   4.739   4.739   4.739   4.739   4.739
   131.25    4.739   4.739   4.739   4.739   4.739   4.739   4.739   4.739   4.739   4.739   4.739   4.739   4.739
   117.50    4.739   4.739   4.739   4.739   4.739   4.739   4.739   4.739   4.739   4.739   4.739   4.739   4.739
   103.75    4.739   4.739   4.739   4.739   4.739   4.739   4.739   4.739   4.739   4.739   4.739   4.739   4.739
    90.00    4.739   4.739   4.739   4.739   4.739   4.739   4.739   4.739   4.739   4.739   4.739   4.739   4.739
    76.25    4.739   4.739   4.739   4.739   4.739   4.739   4.739   4.739   4.739   4.739   4.739   4.739   4.739
    62.50    4.739   4.739   4.739   4.739   4.739   4.739   4.739   4.739   4.739   4.739   4.739   4.739   4.739
    48.75    4.739   4.739   4.739   4.739   4.739   4.739   4.739   4.739   4.739   4.739   4.739   4.739   4.739
    35.00    4.739   4.739   4.739   4.739   4.739   4.739   4.739   4.739   4.739   4.739   4.739   4.739   4.739
    21.25    4.739   4.739   4.739   4.739   4.739   4.739   4.739   4.739   4.739   4.739   4.739   4.739   4.739
     7.50    4.739   4.739   4.739   4.739   4.739   4.739   4.739   4.739   4.739   4.739   4.739   4.739   4.739

   Height   Standard deviation at grid points for the w component:
   172.50    2.868   2.868   2.868   2.868   2.868   2.868   2.868   2.868   2.868   2.868   2.868   2.868   2.868
   158.75    2.868   2.868   2.868   2.868   2.868   2.868   2.868   2.868   2.868   2.868   2.868   2.868   2.868
   145.00    2.868   2.868   2.868   2.868   2.868   2.868   2.868   2.868   2.868   2.868   2.868   2.868   2.868
   131.25    2.868   2.868   2.868   2.868   2.868   2.868   2.868   2.868   2.868   2.868   2.868   2.868   2.868
   117.50    2.868   2.868   2.868   2.868   2.868   2.868   2.868   2.868   2.868   2.868   2.868   2.868   2.868
   103.75    2.868   2.868   2.868   2.868   2.868   2.868   2.868   2.868   2.868   2.868   2.868   2.868   2.868
    90.00    2.868   2.868   2.868   2.868   2.868   2.868   2.868   2.868   2.868   2.868   2.868   2.868   2.868
    76.25    2.868   2.868   2.868   2.868   2.868   2.868   2.868   2.868   2.868   2.868   2.868   2.868   2.868
    62.50    2.868   2.868   2.868   2.868   2.868   2.868   2.868   2.868   2.868   2.868   2.868   2.868   2.868
    48.75    2.868   2.868   2.868   2.868   2.868   2.868   2.868   2.868   2.868   2.868   2.868   2.868   2.868
    35.00    2.868   2.868   2.868   2.868   2.868   2.868   2.868   2.868   2.868   2.868   2.868   2.868   2.868
    21.25    2.868   2.868   2.868   2.868   2.868   2.868   2.868   2.868   2.868   2.868   2.868   2.868   2.868
     7.50    2.868   2.868   2.868   2.868   2.868   2.868   2.868   2.868   2.868   2.868   2.868   2.868   2.868

   Mean standard deviation across all grid points:
      u component:    5.993 m/s
      v component:    4.739 m/s
      w component:    2.868 m/s


U-component (X) statistics from the interpolated hub point:

   Mean =  55.0000 m/s
   TI   =  10.9874 %


Processing complete.  16.188 CPU seconds used.
