
This summary file was generated by TurbSim (v2.00.07a-bjj, 14-Jun-2016) on 23-Mar-2020 at 10:06:58.


Runtime Options:

        21  Random seed #1
        22  Random seed #2
         F  Output binary HH turbulence parameters?
         F  Output formatted turbulence parameters?
         F  Output AeroDyn HH files?
         T  Output AeroDyn FF files?
         F  Output BLADED FF files?
         F  Output tower data?
         F  Output formatted FF files?
         F  Output coherent turbulence time step file?
         T  Clockwise rotation when looking downwind?
 0 -  NONE  IEC turbulence models scaled to exact specified standard deviation


Turbine/Model Specifications:

        13  Vertical grid-point matrix dimension
        13  Horizontal grid-point matrix dimension
     0.050  Time step [seconds]
  3630.000  Analysis time [seconds]
  3630.000  Usable output time [seconds]
    90.000  Hub height [m]
   165.000  Grid height [m]
   165.000  Grid width [m]
     0.000  Vertical flow angle [degrees]
     0.000  Horizontal flow angle [degrees]


Meteorological Boundary Conditions:

    IECKAI  IEC Kaimal spectral model
         3  IEC standard: IEC 61400-3 Ed. 1: 2006
    11.000  Percent turbulence intensity, IEC 61400-3 Ed. 1: 2006
       NTM  IEC Normal Turbulence Model
       N/A  IEC Extreme Turbulence Model (ETM) "c" parameter [m/s]
       IEC  Wind profile type
    90.000  Reference height [m]
    60.000  Reference wind speed [m/s]
       N/A  Jet height [m]
     0.140  Power law exponent
     0.030  Surface roughness length [m]


Non-IEC Meteorological Boundary Conditions:

       N/A  Site latitude [degrees]
       N/A  Gradient Richardson number
       N/A  Friction or shear velocity [m/s]
       N/A  Mixing layer depth [m]
       N/A  Mean hub u'w' Reynolds stress
       N/A  Mean hub u'v' Reynolds stress
       N/A  Mean hub v'w' Reynolds stress


Spatial Coherence Models:

       IEC  u-component coherence model
      NONE  v-component coherence model
      NONE  w-component coherence model
(   12.000, 0.353E-03)  u-component coherence parameters
                   N/A  v-component coherence parameters
                   N/A  w-component coherence parameters
       N/A  Coherence exponent


You have requested that the following file(s) be generated:

   2_60.bts (AeroDyn/TurbSim full-field wind file)


Turbulence Simulation Scaling Parameter Summary:

   Turbulence model used                            =  IEC Kaimal
   Turbulence characteristic                        =  User-specified
   IEC standard                                     =  IEC 61400-3 Ed. 1: 2006
   Mean wind speed at hub height                    =   60.000 m/s
   Characteristic value of standard deviation       =    6.600 m/s
   Turbulence scale                                 =   42.000 m
   u-component integral scale                       =  340.200 m
   Coherency scale                                  =  340.200 m
   Characteristic value of hub turbulence intensity =   11.000%
   Gradient Richardson number                       =    0.000

   Wind profile type                                =  Power law on rotor disk, logarithmic elsewhere
   Power law exponent                               =    0.140
   Mean shear across rotor disk                     =    0.142 (m/s)/m
   Assumed rotor diameter                           =  165.000 m
   Surface roughness length                         =    0.030 m

   Nyquist frequency of turbulent wind field        =   10.000 Hz

   Number of time steps in the FFT                  =    72600
   Number of time steps output                      =    72600
   Number of points simulated                       =      169


Mean Flow Angles:

   Vertical   =   0.0 degrees
   Horizontal =   0.0 degrees

Mean Wind Speed Profile:

   Height    Wind Speed   Horizontal Angle  Vertical Angle  U-comp (X)   V-comp (Y)   W-comp (Z)
     (m)        (m/s)         (degrees)       (degrees)       (m/s)        (m/s)        (m/s)   
   ------    ----------   ----------------  --------------  ----------   ----------   ----------
    172.5       65.72            0.00            0.00         65.72         0.00         0.00
    158.8       64.96            0.00            0.00         64.96         0.00         0.00
    145.0       64.14            0.00            0.00         64.14         0.00         0.00
    131.2       63.25            0.00            0.00         63.25         0.00         0.00
    117.5       62.28            0.00            0.00         62.28         0.00         0.00
    103.8       61.21            0.00            0.00         61.21         0.00         0.00
     90.0       60.00            0.00            0.00         60.00         0.00         0.00
     76.2       58.62            0.00            0.00         58.62         0.00         0.00
     62.5       57.01            0.00            0.00         57.01         0.00         0.00
     48.8       55.06            0.00            0.00         55.06         0.00         0.00
     35.0       52.57            0.00            0.00         52.57         0.00         0.00
     21.2       49.02            0.00            0.00         49.02         0.00         0.00
      7.5       42.37            0.00            0.00         42.37         0.00         0.00


Harvested Random Seeds after Generation of the Random Numbers:

   1447454309 Harvested seed # 1
    711409709 Harvested seed # 2


Hub-Height Simulated Turbulence Statistical Summary:

   Type of Wind        Min (m/s)   Mean (m/s)    Max (m/s)  Sigma (m/s)       TI (%)
   ----------------    ---------   ----------    ---------  -----------       ------
   Longitudinal (u)        31.65        60.00        86.84        6.590       10.984
   Lateral (v)            -20.60         0.00        21.56        5.164        8.607
   Vertical (w)           -13.57        -0.00        14.31        3.119        5.198
   U component             31.65        60.00        86.84        6.590       10.984
   V component            -20.60         0.00        21.56        5.164        8.607
   W component            -13.57        -0.00        14.31        3.119        5.198
   Horizontal (U&V)        31.82        60.22        86.85        6.578       10.923
   Total                   31.85        60.30        86.87        6.570       10.895

                       Min Reynolds     Mean Reynolds    Max Reynolds    Correlation
   Product             Stress (m/s)^2   Stress (m/s)^2   Stress (m/s)^2  Coefficient
   ----------------    --------------   --------------   --------------  -----------
   u'w'                   -158.631             0.507           199.775         0.025
   u'v'                   -270.697             0.475           281.295         0.014
   v'w'                   -147.319            -0.211           150.566        -0.013


   Friction Velocity (Ustar)  =      0.712 m/s
   Maximum Instantaneous TKE  =    408.108 (m/s)^2
   Maximum Instantaneous CTKE =    149.681 (m/s)^2


Grid Point Variance Summary:

   Y-coord  -82.50  -68.75  -55.00  -41.25  -27.50  -13.75    0.00   13.75   27.50   41.25   55.00   68.75   82.50

   Height   Standard deviation at grid points for the u component:
   172.50    6.712   6.640   6.637   6.547   6.485   6.344   6.374   6.285   6.343   6.317   6.406   6.529   6.466
   158.75    6.743   6.629   6.595   6.560   6.536   6.506   6.384   6.155   6.212   6.357   6.443   6.405   6.516
   145.00    6.753   6.595   6.520   6.507   6.476   6.445   6.402   6.289   6.308   6.351   6.389   6.502   6.530
   131.25    6.694   6.653   6.568   6.626   6.531   6.455   6.407   6.344   6.290   6.373   6.419   6.503   6.529
   117.50    6.683   6.721   6.731   6.655   6.594   6.587   6.496   6.554   6.406   6.433   6.459   6.509   6.637
   103.75    6.736   6.685   6.643   6.648   6.618   6.601   6.592   6.480   6.531   6.552   6.510   6.591   6.612
    90.00    6.679   6.784   6.671   6.677   6.633   6.656   6.590   6.539   6.564   6.653   6.641   6.648   6.533
    76.25    6.736   6.781   6.714   6.722   6.591   6.543   6.547   6.541   6.568   6.609   6.652   6.626   6.619
    62.50    6.654   6.665   6.775   6.684   6.640   6.578   6.513   6.570   6.476   6.552   6.634   6.674   6.567
    48.75    6.642   6.705   6.669   6.667   6.600   6.494   6.399   6.454   6.431   6.453   6.606   6.572   6.500
    35.00    6.592   6.609   6.614   6.737   6.700   6.531   6.429   6.477   6.426   6.465   6.551   6.386   6.398
    21.25    6.558   6.450   6.587   6.683   6.642   6.504   6.354   6.350   6.356   6.459   6.477   6.344   6.424
     7.50    6.522   6.513   6.618   6.729   6.506   6.408   6.389   6.416   6.358   6.391   6.438   6.433   6.549

   Height   Standard deviation at grid points for the v component:
   172.50    5.164   5.164   5.164   5.164   5.164   5.164   5.164   5.164   5.164   5.164   5.164   5.164   5.164
   158.75    5.164   5.164   5.164   5.164   5.164   5.164   5.164   5.164   5.164   5.164   5.164   5.164   5.164
   145.00    5.164   5.164   5.164   5.164   5.164   5.164   5.164   5.164   5.164   5.164   5.164   5.164   5.164
   131.25    5.164   5.164   5.164   5.164   5.164   5.164   5.164   5.164   5.164   5.164   5.164   5.164   5.164
   117.50    5.164   5.164   5.164   5.164   5.164   5.164   5.164   5.164   5.164   5.164   5.164   5.164   5.164
   103.75    5.164   5.164   5.164   5.164   5.164   5.164   5.164   5.164   5.164   5.164   5.164   5.164   5.164
    90.00    5.164   5.164   5.164   5.164   5.164   5.164   5.164   5.164   5.164   5.164   5.164   5.164   5.164
    76.25    5.164   5.164   5.164   5.164   5.164   5.164   5.164   5.164   5.164   5.164   5.164   5.164   5.164
    62.50    5.164   5.164   5.164   5.164   5.164   5.164   5.164   5.164   5.164   5.164   5.164   5.164   5.164
    48.75    5.164   5.164   5.164   5.164   5.164   5.164   5.164   5.164   5.164   5.164   5.164   5.164   5.164
    35.00    5.164   5.164   5.164   5.164   5.164   5.164   5.164   5.164   5.164   5.164   5.164   5.164   5.164
    21.25    5.164   5.164   5.164   5.164   5.164   5.164   5.164   5.164   5.164   5.164   5.164   5.164   5.164
     7.50    5.164   5.164   5.164   5.164   5.164   5.164   5.164   5.164   5.164   5.164   5.164   5.164   5.164

   Height   Standard deviation at grid points for the w component:
   172.50    3.119   3.119   3.119   3.119   3.119   3.119   3.119   3.119   3.119   3.119   3.119   3.119   3.119
   158.75    3.119   3.119   3.119   3.119   3.119   3.119   3.119   3.119   3.119   3.119   3.119   3.119   3.119
   145.00    3.119   3.119   3.119   3.119   3.119   3.119   3.119   3.119   3.119   3.119   3.119   3.119   3.119
   131.25    3.119   3.119   3.119   3.119   3.119   3.119   3.119   3.119   3.119   3.119   3.119   3.119   3.119
   117.50    3.119   3.119   3.119   3.119   3.119   3.119   3.119   3.119   3.119   3.119   3.119   3.119   3.119
   103.75    3.119   3.119   3.119   3.119   3.119   3.119   3.119   3.119   3.119   3.119   3.119   3.119   3.119
    90.00    3.119   3.119   3.119   3.119   3.119   3.119   3.119   3.119   3.119   3.119   3.119   3.119   3.119
    76.25    3.119   3.119   3.119   3.119   3.119   3.119   3.119   3.119   3.119   3.119   3.119   3.119   3.119
    62.50    3.119   3.119   3.119   3.119   3.119   3.119   3.119   3.119   3.119   3.119   3.119   3.119   3.119
    48.75    3.119   3.119   3.119   3.119   3.119   3.119   3.119   3.119   3.119   3.119   3.119   3.119   3.119
    35.00    3.119   3.119   3.119   3.119   3.119   3.119   3.119   3.119   3.119   3.119   3.119   3.119   3.119
    21.25    3.119   3.119   3.119   3.119   3.119   3.119   3.119   3.119   3.119   3.119   3.119   3.119   3.119
     7.50    3.119   3.119   3.119   3.119   3.119   3.119   3.119   3.119   3.119   3.119   3.119   3.119   3.119

   Mean standard deviation across all grid points:
      u component:    6.538 m/s
      v component:    5.164 m/s
      w component:    3.119 m/s


U-component (X) statistics from the interpolated hub point:

   Mean =  60.0000 m/s
   TI   =  10.9841 %


Processing complete.  16.172 CPU seconds used.
