
This summary file was generated by TurbSim (v2.00.07a-bjj, 14-Jun-2016) on 23-Mar-2020 at 10:08:12.


Runtime Options:

        21  Random seed #1
        22  Random seed #2
         F  Output binary HH turbulence parameters?
         F  Output formatted turbulence parameters?
         F  Output AeroDyn HH files?
         T  Output AeroDyn FF files?
         F  Output BLADED FF files?
         F  Output tower data?
         F  Output formatted FF files?
         F  Output coherent turbulence time step file?
         T  Clockwise rotation when looking downwind?
 0 -  NONE  IEC turbulence models scaled to exact specified standard deviation


Turbine/Model Specifications:

        13  Vertical grid-point matrix dimension
        13  Horizontal grid-point matrix dimension
     0.050  Time step [seconds]
  3630.000  Analysis time [seconds]
  3630.000  Usable output time [seconds]
    90.000  Hub height [m]
   165.000  Grid height [m]
   165.000  Grid width [m]
     0.000  Vertical flow angle [degrees]
     0.000  Horizontal flow angle [degrees]


Meteorological Boundary Conditions:

    IECKAI  IEC Kaimal spectral model
         3  IEC standard: IEC 61400-3 Ed. 1: 2006
    11.000  Percent turbulence intensity, IEC 61400-3 Ed. 1: 2006
       NTM  IEC Normal Turbulence Model
       N/A  IEC Extreme Turbulence Model (ETM) "c" parameter [m/s]
       IEC  Wind profile type
    90.000  Reference height [m]
    75.000  Reference wind speed [m/s]
       N/A  Jet height [m]
     0.140  Power law exponent
     0.030  Surface roughness length [m]


Non-IEC Meteorological Boundary Conditions:

       N/A  Site latitude [degrees]
       N/A  Gradient Richardson number
       N/A  Friction or shear velocity [m/s]
       N/A  Mixing layer depth [m]
       N/A  Mean hub u'w' Reynolds stress
       N/A  Mean hub u'v' Reynolds stress
       N/A  Mean hub v'w' Reynolds stress


Spatial Coherence Models:

       IEC  u-component coherence model
      NONE  v-component coherence model
      NONE  w-component coherence model
(   12.000, 0.353E-03)  u-component coherence parameters
                   N/A  v-component coherence parameters
                   N/A  w-component coherence parameters
       N/A  Coherence exponent


You have requested that the following file(s) be generated:

   2_75.bts (AeroDyn/TurbSim full-field wind file)


Turbulence Simulation Scaling Parameter Summary:

   Turbulence model used                            =  IEC Kaimal
   Turbulence characteristic                        =  User-specified
   IEC standard                                     =  IEC 61400-3 Ed. 1: 2006
   Mean wind speed at hub height                    =   75.000 m/s
   Characteristic value of standard deviation       =    8.250 m/s
   Turbulence scale                                 =   42.000 m
   u-component integral scale                       =  340.200 m
   Coherency scale                                  =  340.200 m
   Characteristic value of hub turbulence intensity =   11.000%
   Gradient Richardson number                       =    0.000

   Wind profile type                                =  Power law on rotor disk, logarithmic elsewhere
   Power law exponent                               =    0.140
   Mean shear across rotor disk                     =    0.177 (m/s)/m
   Assumed rotor diameter                           =  165.000 m
   Surface roughness length                         =    0.030 m

   Nyquist frequency of turbulent wind field        =   10.000 Hz

   Number of time steps in the FFT                  =    72600
   Number of time steps output                      =    72600
   Number of points simulated                       =      169


Mean Flow Angles:

   Vertical   =   0.0 degrees
   Horizontal =   0.0 degrees

Mean Wind Speed Profile:

   Height    Wind Speed   Horizontal Angle  Vertical Angle  U-comp (X)   V-comp (Y)   W-comp (Z)
     (m)        (m/s)         (degrees)       (degrees)       (m/s)        (m/s)        (m/s)   
   ------    ----------   ----------------  --------------  ----------   ----------   ----------
    172.5       82.15            0.00            0.00         82.15         0.00         0.00
    158.8       81.20            0.00            0.00         81.20         0.00         0.00
    145.0       80.18            0.00            0.00         80.18         0.00         0.00
    131.2       79.07            0.00            0.00         79.07         0.00         0.00
    117.5       77.85            0.00            0.00         77.85         0.00         0.00
    103.8       76.51            0.00            0.00         76.51         0.00         0.00
     90.0       75.00            0.00            0.00         75.00         0.00         0.00
     76.2       73.28            0.00            0.00         73.28         0.00         0.00
     62.5       71.27            0.00            0.00         71.27         0.00         0.00
     48.8       68.83            0.00            0.00         68.83         0.00         0.00
     35.0       65.71            0.00            0.00         65.71         0.00         0.00
     21.2       61.28            0.00            0.00         61.28         0.00         0.00
      7.5       52.96            0.00            0.00         52.96         0.00         0.00


Harvested Random Seeds after Generation of the Random Numbers:

   1447454309 Harvested seed # 1
    711409709 Harvested seed # 2


Hub-Height Simulated Turbulence Statistical Summary:

   Type of Wind        Min (m/s)   Mean (m/s)    Max (m/s)  Sigma (m/s)       TI (%)
   ----------------    ---------   ----------    ---------  -----------       ------
   Longitudinal (u)        39.91        75.00       109.20        8.223       10.964
   Lateral (v)            -25.49         0.00        26.76        6.433        8.577
   Vertical (w)           -16.76        -0.00        17.74        3.862        5.150
   U component             39.91        75.00       109.20        8.223       10.964
   V component            -25.49         0.00        26.76        6.433        8.577
   W component            -16.76        -0.00        17.74        3.862        5.150
   Horizontal (U&V)        40.13        75.28       109.21        8.207       10.902
   Total                   40.17        75.38       109.24        8.197       10.875

                       Min Reynolds     Mean Reynolds    Max Reynolds    Correlation
   Product             Stress (m/s)^2   Stress (m/s)^2   Stress (m/s)^2  Coefficient
   ----------------    --------------   --------------   --------------  -----------
   u'w'                   -239.734             0.727           304.874         0.023
   u'v'                   -422.228             0.452           424.304         0.009
   v'w'                   -236.129            -0.274           223.509        -0.011


   Friction Velocity (Ustar)  =      0.853 m/s
   Maximum Instantaneous TKE  =    625.922 (m/s)^2
   Maximum Instantaneous CTKE =    232.179 (m/s)^2


Grid Point Variance Summary:

   Y-coord  -82.50  -68.75  -55.00  -41.25  -27.50  -13.75    0.00   13.75   27.50   41.25   55.00   68.75   82.50

   Height   Standard deviation at grid points for the u component:
   172.50    8.371   8.306   8.304   8.186   8.121   7.977   8.010   7.918   7.991   7.951   8.028   8.158   8.096
   158.75    8.406   8.271   8.230   8.194   8.176   8.139   8.011   7.763   7.834   7.984   8.070   8.013   8.146
   145.00    8.418   8.238   8.154   8.136   8.114   8.071   8.020   7.891   7.915   7.956   8.007   8.128   8.164
   131.25    8.339   8.299   8.205   8.277   8.174   8.096   8.032   7.947   7.877   7.976   8.035   8.135   8.171
   117.50    8.336   8.373   8.384   8.302   8.246   8.236   8.122   8.175   8.005   8.050   8.091   8.150   8.285
   103.75    8.393   8.337   8.294   8.290   8.268   8.244   8.217   8.098   8.151   8.185   8.136   8.237   8.254
    90.00    8.323   8.436   8.322   8.316   8.276   8.298   8.223   8.160   8.194   8.286   8.266   8.283   8.151
    76.25    8.387   8.427   8.369   8.369   8.221   8.160   8.161   8.154   8.189   8.236   8.280   8.248   8.236
    62.50    8.297   8.301   8.439   8.328   8.272   8.198   8.128   8.186   8.081   8.164   8.262   8.303   8.176
    48.75    8.288   8.349   8.313   8.304   8.212   8.097   8.000   8.063   8.037   8.066   8.240   8.209   8.124
    35.00    8.235   8.245   8.253   8.391   8.343   8.146   8.030   8.085   8.041   8.086   8.178   8.004   8.007
    21.25    8.194   8.074   8.226   8.342   8.291   8.124   7.949   7.951   7.962   8.079   8.097   7.950   8.031
     7.50    8.141   8.141   8.265   8.392   8.137   8.028   8.004   8.039   7.962   7.998   8.057   8.050   8.167

   Height   Standard deviation at grid points for the v component:
   172.50    6.433   6.433   6.433   6.433   6.433   6.433   6.433   6.433   6.433   6.433   6.433   6.433   6.433
   158.75    6.433   6.433   6.433   6.433   6.433   6.433   6.433   6.433   6.433   6.433   6.433   6.433   6.433
   145.00    6.433   6.433   6.433   6.433   6.433   6.433   6.433   6.433   6.433   6.433   6.433   6.433   6.433
   131.25    6.433   6.433   6.433   6.433   6.433   6.433   6.433   6.433   6.433   6.433   6.433   6.433   6.433
   117.50    6.433   6.433   6.433   6.433   6.433   6.433   6.433   6.433   6.433   6.433   6.433   6.433   6.433
   103.75    6.433   6.433   6.433   6.433   6.433   6.433   6.433   6.433   6.433   6.433   6.433   6.433   6.433
    90.00    6.433   6.433   6.433   6.433   6.433   6.433   6.433   6.433   6.433   6.433   6.433   6.433   6.433
    76.25    6.433   6.433   6.433   6.433   6.433   6.433   6.433   6.433   6.433   6.433   6.433   6.433   6.433
    62.50    6.433   6.433   6.433   6.433   6.433   6.433   6.433   6.433   6.433   6.433   6.433   6.433   6.433
    48.75    6.433   6.433   6.433   6.433   6.433   6.433   6.433   6.433   6.433   6.433   6.433   6.433   6.433
    35.00    6.433   6.433   6.433   6.433   6.433   6.433   6.433   6.433   6.433   6.433   6.433   6.433   6.433
    21.25    6.433   6.433   6.433   6.433   6.433   6.433   6.433   6.433   6.433   6.433   6.433   6.433   6.433
     7.50    6.433   6.433   6.433   6.433   6.433   6.433   6.433   6.433   6.433   6.433   6.433   6.433   6.433

   Height   Standard deviation at grid points for the w component:
   172.50    3.862   3.862   3.862   3.862   3.862   3.862   3.862   3.862   3.862   3.862   3.862   3.862   3.862
   158.75    3.862   3.862   3.862   3.862   3.862   3.862   3.862   3.862   3.862   3.862   3.862   3.862   3.862
   145.00    3.862   3.862   3.862   3.862   3.862   3.862   3.862   3.862   3.862   3.862   3.862   3.862   3.862
   131.25    3.862   3.862   3.862   3.862   3.862   3.862   3.862   3.862   3.862   3.862   3.862   3.862   3.862
   117.50    3.862   3.862   3.862   3.862   3.862   3.862   3.862   3.862   3.862   3.862   3.862   3.862   3.862
   103.75    3.862   3.862   3.862   3.862   3.862   3.862   3.862   3.862   3.862   3.862   3.862   3.862   3.862
    90.00    3.862   3.862   3.862   3.862   3.862   3.862   3.862   3.862   3.862   3.862   3.862   3.862   3.862
    76.25    3.862   3.862   3.862   3.862   3.862   3.862   3.862   3.862   3.862   3.862   3.862   3.862   3.862
    62.50    3.862   3.862   3.862   3.862   3.862   3.862   3.862   3.862   3.862   3.862   3.862   3.862   3.862
    48.75    3.862   3.862   3.862   3.862   3.862   3.862   3.862   3.862   3.862   3.862   3.862   3.862   3.862
    35.00    3.862   3.862   3.862   3.862   3.862   3.862   3.862   3.862   3.862   3.862   3.862   3.862   3.862
    21.25    3.862   3.862   3.862   3.862   3.862   3.862   3.862   3.862   3.862   3.862   3.862   3.862   3.862
     7.50    3.862   3.862   3.862   3.862   3.862   3.862   3.862   3.862   3.862   3.862   3.862   3.862   3.862

   Mean standard deviation across all grid points:
      u component:    8.168 m/s
      v component:    6.433 m/s
      w component:    3.862 m/s


U-component (X) statistics from the interpolated hub point:

   Mean =  75.0000 m/s
   TI   =  10.9635 %


Processing complete.  16.078 CPU seconds used.
