
This summary file was generated by TurbSim (v2.00.07a-bjj, 14-Jun-2016) on 23-Mar-2020 at 10:09:43.


Runtime Options:

        21  Random seed #1
        22  Random seed #2
         F  Output binary HH turbulence parameters?
         F  Output formatted turbulence parameters?
         F  Output AeroDyn HH files?
         T  Output AeroDyn FF files?
         F  Output BLADED FF files?
         F  Output tower data?
         F  Output formatted FF files?
         F  Output coherent turbulence time step file?
         T  Clockwise rotation when looking downwind?
 0 -  NONE  IEC turbulence models scaled to exact specified standard deviation


Turbine/Model Specifications:

        13  Vertical grid-point matrix dimension
        13  Horizontal grid-point matrix dimension
     0.050  Time step [seconds]
  3630.000  Analysis time [seconds]
  3630.000  Usable output time [seconds]
    90.000  Hub height [m]
   165.000  Grid height [m]
   165.000  Grid width [m]
     0.000  Vertical flow angle [degrees]
     0.000  Horizontal flow angle [degrees]


Meteorological Boundary Conditions:

    IECKAI  IEC Kaimal spectral model
         3  IEC standard: IEC 61400-3 Ed. 1: 2006
    11.000  Percent turbulence intensity, IEC 61400-3 Ed. 1: 2006
       NTM  IEC Normal Turbulence Model
       N/A  IEC Extreme Turbulence Model (ETM) "c" parameter [m/s]
       IEC  Wind profile type
    90.000  Reference height [m]
    95.000  Reference wind speed [m/s]
       N/A  Jet height [m]
     0.140  Power law exponent
     0.030  Surface roughness length [m]


Non-IEC Meteorological Boundary Conditions:

       N/A  Site latitude [degrees]
       N/A  Gradient Richardson number
       N/A  Friction or shear velocity [m/s]
       N/A  Mixing layer depth [m]
       N/A  Mean hub u'w' Reynolds stress
       N/A  Mean hub u'v' Reynolds stress
       N/A  Mean hub v'w' Reynolds stress


Spatial Coherence Models:

       IEC  u-component coherence model
      NONE  v-component coherence model
      NONE  w-component coherence model
(   12.000, 0.353E-03)  u-component coherence parameters
                   N/A  v-component coherence parameters
                   N/A  w-component coherence parameters
       N/A  Coherence exponent


You have requested that the following file(s) be generated:

   2_95.bts (AeroDyn/TurbSim full-field wind file)


Turbulence Simulation Scaling Parameter Summary:

   Turbulence model used                            =  IEC Kaimal
   Turbulence characteristic                        =  User-specified
   IEC standard                                     =  IEC 61400-3 Ed. 1: 2006
   Mean wind speed at hub height                    =   95.000 m/s
   Characteristic value of standard deviation       =   10.450 m/s
   Turbulence scale                                 =   42.000 m
   u-component integral scale                       =  340.200 m
   Coherency scale                                  =  340.200 m
   Characteristic value of hub turbulence intensity =   11.000%
   Gradient Richardson number                       =    0.000

   Wind profile type                                =  Power law on rotor disk, logarithmic elsewhere
   Power law exponent                               =    0.140
   Mean shear across rotor disk                     =    0.224 (m/s)/m
   Assumed rotor diameter                           =  165.000 m
   Surface roughness length                         =    0.030 m

   Nyquist frequency of turbulent wind field        =   10.000 Hz

   Number of time steps in the FFT                  =    72600
   Number of time steps output                      =    72600
   Number of points simulated                       =      169


Mean Flow Angles:

   Vertical   =   0.0 degrees
   Horizontal =   0.0 degrees

Mean Wind Speed Profile:

   Height    Wind Speed   Horizontal Angle  Vertical Angle  U-comp (X)   V-comp (Y)   W-comp (Z)
     (m)        (m/s)         (degrees)       (degrees)       (m/s)        (m/s)        (m/s)   
   ------    ----------   ----------------  --------------  ----------   ----------   ----------
    172.5      104.06            0.00            0.00        104.06         0.00         0.00
    158.8      102.86            0.00            0.00        102.86         0.00         0.00
    145.0      101.56            0.00            0.00        101.56         0.00         0.00
    131.2      100.15            0.00            0.00        100.15         0.00         0.00
    117.5       98.61            0.00            0.00         98.61         0.00         0.00
    103.8       96.91            0.00            0.00         96.91         0.00         0.00
     90.0       95.00            0.00            0.00         95.00         0.00         0.00
     76.2       92.82            0.00            0.00         92.82         0.00         0.00
     62.5       90.27            0.00            0.00         90.27         0.00         0.00
     48.8       87.19            0.00            0.00         87.19         0.00         0.00
     35.0       83.23            0.00            0.00         83.23         0.00         0.00
     21.2       77.62            0.00            0.00         77.62         0.00         0.00
      7.5       67.09            0.00            0.00         67.09         0.00         0.00


Harvested Random Seeds after Generation of the Random Numbers:

   1447454309 Harvested seed # 1
    711409709 Harvested seed # 2


Hub-Height Simulated Turbulence Statistical Summary:

   Type of Wind        Min (m/s)   Mean (m/s)    Max (m/s)  Sigma (m/s)       TI (%)
   ----------------    ---------   ----------    ---------  -----------       ------
   Longitudinal (u)        51.23        95.00       138.58       10.378       10.924
   Lateral (v)            -31.92         0.00        33.58        8.113        8.540
   Vertical (w)           -20.90        -0.00        22.21        4.837        5.091
   U component             51.23        95.00       138.58       10.378       10.924
   V component            -31.92         0.00        33.58        8.113        8.540
   W component            -20.90        -0.00        22.21        4.837        5.091
   Horizontal (U&V)        51.51        95.35       138.59       10.358       10.863
   Total                   51.56        95.47       138.65       10.346       10.837

                       Min Reynolds     Mean Reynolds    Max Reynolds    Correlation
   Product             Stress (m/s)^2   Stress (m/s)^2   Stress (m/s)^2  Coefficient
   ----------------    --------------   --------------   --------------  -----------
   u'w'                   -377.530             1.054           473.093         0.021
   u'v'                   -659.849             0.279           647.812         0.003
   v'w'                   -386.138            -0.367           359.209        -0.009


   Friction Velocity (Ustar)  =      1.027 m/s
   Maximum Instantaneous TKE  =    975.492 (m/s)^2
   Maximum Instantaneous CTKE =    361.851 (m/s)^2


Grid Point Variance Summary:

   Y-coord  -82.50  -68.75  -55.00  -41.25  -27.50  -13.75    0.00   13.75   27.50   41.25   55.00   68.75   82.50

   Height   Standard deviation at grid points for the u component:
   172.50   10.570  10.512  10.514  10.358  10.293  10.148  10.183  10.085  10.178  10.114  10.181  10.315  10.256
   158.75   10.611  10.450  10.399  10.359  10.350  10.303  10.169   9.900   9.987  10.138  10.226  10.149  10.304
   145.00   10.619  10.418  10.327  10.298  10.287  10.229  10.168  10.017  10.045  10.088  10.155  10.283  10.329
   131.25   10.517  10.478  10.377  10.462  10.354  10.273  10.187  10.075   9.989  10.105  10.184  10.297  10.344
   117.50   10.527  10.559  10.571  10.480  10.431  10.419  10.275  10.317  10.126  10.195  10.254  10.325  10.463
   103.75   10.588  10.526  10.479  10.464  10.454  10.420  10.367  10.237  10.295  10.351  10.287  10.414  10.426
    90.00   10.497  10.620  10.510  10.486  10.459  10.468  10.378  10.303  10.348  10.441  10.412  10.444  10.293
    76.25   10.569  10.605  10.559  10.549  10.384  10.302  10.295  10.284  10.331  10.387  10.432  10.394  10.373
    62.50   10.471  10.466  10.640  10.504  10.433  10.341  10.269  10.325  10.206  10.300  10.420  10.461  10.307
    48.75   10.467  10.519  10.486  10.470  10.346  10.222  10.126  10.196  10.170  10.207  10.409  10.381  10.277
    35.00   10.414  10.412  10.420  10.578  10.519  10.292  10.155  10.218  10.187  10.239  10.340  10.154  10.141
    21.25   10.364  10.233  10.397  10.537  10.476  10.274  10.070  10.079  10.095  10.233  10.250  10.087  10.163
     7.50   10.293  10.305  10.447  10.593  10.302  10.179  10.152  10.192  10.097  10.135  10.203  10.194  10.312

   Height   Standard deviation at grid points for the v component:
   172.50    8.113   8.113   8.113   8.113   8.113   8.113   8.113   8.113   8.113   8.113   8.113   8.113   8.113
   158.75    8.113   8.113   8.113   8.113   8.113   8.113   8.113   8.113   8.113   8.113   8.113   8.113   8.113
   145.00    8.113   8.113   8.113   8.113   8.113   8.113   8.113   8.113   8.113   8.113   8.113   8.113   8.113
   131.25    8.113   8.113   8.113   8.113   8.113   8.113   8.113   8.113   8.113   8.113   8.113   8.113   8.113
   117.50    8.113   8.113   8.113   8.113   8.113   8.113   8.113   8.113   8.113   8.113   8.113   8.113   8.113
   103.75    8.113   8.113   8.113   8.113   8.113   8.113   8.113   8.113   8.113   8.113   8.113   8.113   8.113
    90.00    8.113   8.113   8.113   8.113   8.113   8.113   8.113   8.113   8.113   8.113   8.113   8.113   8.113
    76.25    8.113   8.113   8.113   8.113   8.113   8.113   8.113   8.113   8.113   8.113   8.113   8.113   8.113
    62.50    8.113   8.113   8.113   8.113   8.113   8.113   8.113   8.113   8.113   8.113   8.113   8.113   8.113
    48.75    8.113   8.113   8.113   8.113   8.113   8.113   8.113   8.113   8.113   8.113   8.113   8.113   8.113
    35.00    8.113   8.113   8.113   8.113   8.113   8.113   8.113   8.113   8.113   8.113   8.113   8.113   8.113
    21.25    8.113   8.113   8.113   8.113   8.113   8.113   8.113   8.113   8.113   8.113   8.113   8.113   8.113
     7.50    8.113   8.113   8.113   8.113   8.113   8.113   8.113   8.113   8.113   8.113   8.113   8.113   8.113

   Height   Standard deviation at grid points for the w component:
   172.50    4.837   4.837   4.837   4.837   4.837   4.837   4.837   4.837   4.837   4.837   4.837   4.837   4.837
   158.75    4.837   4.837   4.837   4.837   4.837   4.837   4.837   4.837   4.837   4.837   4.837   4.837   4.837
   145.00    4.837   4.837   4.837   4.837   4.837   4.837   4.837   4.837   4.837   4.837   4.837   4.837   4.837
   131.25    4.837   4.837   4.837   4.837   4.837   4.837   4.837   4.837   4.837   4.837   4.837   4.837   4.837
   117.50    4.837   4.837   4.837   4.837   4.837   4.837   4.837   4.837   4.837   4.837   4.837   4.837   4.837
   103.75    4.837   4.837   4.837   4.837   4.837   4.837   4.837   4.837   4.837   4.837   4.837   4.837   4.837
    90.00    4.837   4.837   4.837   4.837   4.837   4.837   4.837   4.837   4.837   4.837   4.837   4.837   4.837
    76.25    4.837   4.837   4.837   4.837   4.837   4.837   4.837   4.837   4.837   4.837   4.837   4.837   4.837
    62.50    4.837   4.837   4.837   4.837   4.837   4.837   4.837   4.837   4.837   4.837   4.837   4.837   4.837
    48.75    4.837   4.837   4.837   4.837   4.837   4.837   4.837   4.837   4.837   4.837   4.837   4.837   4.837
    35.00    4.837   4.837   4.837   4.837   4.837   4.837   4.837   4.837   4.837   4.837   4.837   4.837   4.837
    21.25    4.837   4.837   4.837   4.837   4.837   4.837   4.837   4.837   4.837   4.837   4.837   4.837   4.837
     7.50    4.837   4.837   4.837   4.837   4.837   4.837   4.837   4.837   4.837   4.837   4.837   4.837   4.837

   Mean standard deviation across all grid points:
      u component:   10.328 m/s
      v component:    8.113 m/s
      w component:    4.837 m/s


U-component (X) statistics from the interpolated hub point:

   Mean =  95.0000 m/s
   TI   =  10.9243 %


Processing complete.  16.156 CPU seconds used.
