
This summary file was generated by TurbSim (v2.00.07a-bjj, 14-Jun-2016) on 23-Mar-2020 at 10:12:52.


Runtime Options:

        31  Random seed #1
        32  Random seed #2
         F  Output binary HH turbulence parameters?
         F  Output formatted turbulence parameters?
         F  Output AeroDyn HH files?
         T  Output AeroDyn FF files?
         F  Output BLADED FF files?
         F  Output tower data?
         F  Output formatted FF files?
         F  Output coherent turbulence time step file?
         T  Clockwise rotation when looking downwind?
 0 -  NONE  IEC turbulence models scaled to exact specified standard deviation


Turbine/Model Specifications:

        13  Vertical grid-point matrix dimension
        13  Horizontal grid-point matrix dimension
     0.050  Time step [seconds]
  3630.000  Analysis time [seconds]
  3630.000  Usable output time [seconds]
    90.000  Hub height [m]
   165.000  Grid height [m]
   165.000  Grid width [m]
     0.000  Vertical flow angle [degrees]
     0.000  Horizontal flow angle [degrees]


Meteorological Boundary Conditions:

    IECKAI  IEC Kaimal spectral model
         3  IEC standard: IEC 61400-3 Ed. 1: 2006
    11.000  Percent turbulence intensity, IEC 61400-3 Ed. 1: 2006
       NTM  IEC Normal Turbulence Model
       N/A  IEC Extreme Turbulence Model (ETM) "c" parameter [m/s]
       IEC  Wind profile type
    90.000  Reference height [m]
    30.000  Reference wind speed [m/s]
       N/A  Jet height [m]
     0.140  Power law exponent
     0.030  Surface roughness length [m]


Non-IEC Meteorological Boundary Conditions:

       N/A  Site latitude [degrees]
       N/A  Gradient Richardson number
       N/A  Friction or shear velocity [m/s]
       N/A  Mixing layer depth [m]
       N/A  Mean hub u'w' Reynolds stress
       N/A  Mean hub u'v' Reynolds stress
       N/A  Mean hub v'w' Reynolds stress


Spatial Coherence Models:

       IEC  u-component coherence model
      NONE  v-component coherence model
      NONE  w-component coherence model
(   12.000, 0.353E-03)  u-component coherence parameters
                   N/A  v-component coherence parameters
                   N/A  w-component coherence parameters
       N/A  Coherence exponent


You have requested that the following file(s) be generated:

   3_30.bts (AeroDyn/TurbSim full-field wind file)


Turbulence Simulation Scaling Parameter Summary:

   Turbulence model used                            =  IEC Kaimal
   Turbulence characteristic                        =  User-specified
   IEC standard                                     =  IEC 61400-3 Ed. 1: 2006
   Mean wind speed at hub height                    =   30.000 m/s
   Characteristic value of standard deviation       =    3.300 m/s
   Turbulence scale                                 =   42.000 m
   u-component integral scale                       =  340.200 m
   Coherency scale                                  =  340.200 m
   Characteristic value of hub turbulence intensity =   11.000%
   Gradient Richardson number                       =    0.000

   Wind profile type                                =  Power law on rotor disk, logarithmic elsewhere
   Power law exponent                               =    0.140
   Mean shear across rotor disk                     =    0.071 (m/s)/m
   Assumed rotor diameter                           =  165.000 m
   Surface roughness length                         =    0.030 m

   Nyquist frequency of turbulent wind field        =   10.000 Hz

   Number of time steps in the FFT                  =    72600
   Number of time steps output                      =    72600
   Number of points simulated                       =      169


Mean Flow Angles:

   Vertical   =   0.0 degrees
   Horizontal =   0.0 degrees

Mean Wind Speed Profile:

   Height    Wind Speed   Horizontal Angle  Vertical Angle  U-comp (X)   V-comp (Y)   W-comp (Z)
     (m)        (m/s)         (degrees)       (degrees)       (m/s)        (m/s)        (m/s)   
   ------    ----------   ----------------  --------------  ----------   ----------   ----------
    172.5       32.86            0.00            0.00         32.86         0.00         0.00
    158.8       32.48            0.00            0.00         32.48         0.00         0.00
    145.0       32.07            0.00            0.00         32.07         0.00         0.00
    131.2       31.63            0.00            0.00         31.63         0.00         0.00
    117.5       31.14            0.00            0.00         31.14         0.00         0.00
    103.8       30.60            0.00            0.00         30.60         0.00         0.00
     90.0       30.00            0.00            0.00         30.00         0.00         0.00
     76.2       29.31            0.00            0.00         29.31         0.00         0.00
     62.5       28.51            0.00            0.00         28.51         0.00         0.00
     48.8       27.53            0.00            0.00         27.53         0.00         0.00
     35.0       26.28            0.00            0.00         26.28         0.00         0.00
     21.2       24.51            0.00            0.00         24.51         0.00         0.00
      7.5       21.19            0.00            0.00         21.19         0.00         0.00


Harvested Random Seeds after Generation of the Random Numbers:

    705062557 Harvested seed # 1
    839551995 Harvested seed # 2


Hub-Height Simulated Turbulence Statistical Summary:

   Type of Wind        Min (m/s)   Mean (m/s)    Max (m/s)  Sigma (m/s)       TI (%)
   ----------------    ---------   ----------    ---------  -----------       ------
   Longitudinal (u)        17.40        30.00        43.33        3.161       10.538
   Lateral (v)            -11.18        -0.00        10.73        2.602        8.672
   Vertical (w)            -6.90        -0.00         6.61        1.593        5.308
   U component             17.40        30.00        43.33        3.161       10.538
   V component            -11.18        -0.00        10.73        2.602        8.672
   W component             -6.90        -0.00         6.61        1.593        5.308
   Horizontal (U&V)        17.59        30.11        43.42        3.153       10.469
   Total                   17.69        30.16        43.42        3.149       10.443

                       Min Reynolds     Mean Reynolds    Max Reynolds    Correlation
   Product             Stress (m/s)^2   Stress (m/s)^2   Stress (m/s)^2  Coefficient
   ----------------    --------------   --------------   --------------  -----------
   u'w'                    -42.258            -0.002            45.597        -0.000
   u'v'                    -61.002            -0.219            73.301        -0.027
   v'w'                    -33.043            -0.009            36.371        -0.002


   Friction Velocity (Ustar)  =      0.048 m/s
   Maximum Instantaneous TKE  =     92.909 (m/s)^2
   Maximum Instantaneous CTKE =     38.436 (m/s)^2


Grid Point Variance Summary:

   Y-coord  -82.50  -68.75  -55.00  -41.25  -27.50  -13.75    0.00   13.75   27.50   41.25   55.00   68.75   82.50

   Height   Standard deviation at grid points for the u component:
   172.50    3.195   3.172   3.191   3.278   3.338   3.253   3.252   3.112   3.148   3.175   3.204   3.300   3.235
   158.75    3.161   3.080   3.079   3.168   3.238   3.226   3.116   3.076   3.089   3.195   3.281   3.318   3.272
   145.00    3.135   3.096   3.069   3.101   3.097   3.212   3.120   3.048   3.119   3.188   3.273   3.299   3.288
   131.25    3.110   3.142   3.090   3.061   3.119   3.156   3.143   3.137   3.191   3.260   3.353   3.362   3.296
   117.50    3.095   3.086   3.081   3.053   3.127   3.103   3.182   3.135   3.263   3.358   3.372   3.383   3.356
   103.75    3.119   3.027   3.116   3.113   3.151   3.142   3.179   3.193   3.226   3.305   3.289   3.253   3.275
    90.00    3.192   3.169   3.142   3.045   3.067   3.115   3.161   3.123   3.182   3.283   3.358   3.280   3.228
    76.25    3.202   3.131   3.157   3.095   3.129   3.157   3.186   3.120   3.191   3.283   3.344   3.284   3.259
    62.50    3.242   3.209   3.139   3.240   3.279   3.242   3.291   3.214   3.266   3.217   3.241   3.315   3.335
    48.75    3.209   3.211   3.210   3.319   3.305   3.285   3.242   3.213   3.239   3.282   3.284   3.278   3.272
    35.00    3.198   3.228   3.283   3.362   3.349   3.258   3.250   3.267   3.272   3.349   3.307   3.288   3.246
    21.25    3.289   3.294   3.330   3.370   3.368   3.336   3.281   3.230   3.256   3.306   3.371   3.298   3.235
     7.50    3.268   3.310   3.318   3.388   3.399   3.341   3.327   3.340   3.296   3.281   3.335   3.239   3.267

   Height   Standard deviation at grid points for the v component:
   172.50    2.602   2.602   2.602   2.602   2.602   2.602   2.602   2.602   2.602   2.602   2.602   2.602   2.602
   158.75    2.602   2.602   2.602   2.602   2.602   2.602   2.602   2.602   2.602   2.602   2.602   2.602   2.602
   145.00    2.602   2.602   2.602   2.602   2.602   2.602   2.602   2.602   2.602   2.602   2.602   2.602   2.602
   131.25    2.602   2.602   2.602   2.602   2.602   2.602   2.602   2.602   2.602   2.602   2.602   2.602   2.602
   117.50    2.602   2.602   2.602   2.602   2.602   2.602   2.602   2.602   2.602   2.602   2.602   2.602   2.602
   103.75    2.602   2.602   2.602   2.602   2.602   2.602   2.602   2.602   2.602   2.602   2.602   2.602   2.602
    90.00    2.602   2.602   2.602   2.602   2.602   2.602   2.602   2.602   2.602   2.602   2.602   2.602   2.602
    76.25    2.602   2.602   2.602   2.602   2.602   2.602   2.602   2.602   2.602   2.602   2.602   2.602   2.602
    62.50    2.602   2.602   2.602   2.602   2.602   2.602   2.602   2.602   2.602   2.602   2.602   2.602   2.602
    48.75    2.602   2.602   2.602   2.602   2.602   2.602   2.602   2.602   2.602   2.602   2.602   2.602   2.602
    35.00    2.602   2.602   2.602   2.602   2.602   2.602   2.602   2.602   2.602   2.602   2.602   2.602   2.602
    21.25    2.602   2.602   2.602   2.602   2.602   2.602   2.602   2.602   2.602   2.602   2.602   2.602   2.602
     7.50    2.602   2.602   2.602   2.602   2.602   2.602   2.602   2.602   2.602   2.602   2.602   2.602   2.602

   Height   Standard deviation at grid points for the w component:
   172.50    1.593   1.593   1.593   1.593   1.593   1.593   1.593   1.593   1.593   1.593   1.593   1.593   1.593
   158.75    1.593   1.593   1.593   1.593   1.593   1.593   1.593   1.593   1.593   1.593   1.593   1.593   1.593
   145.00    1.593   1.593   1.593   1.593   1.593   1.593   1.593   1.593   1.593   1.593   1.593   1.593   1.593
   131.25    1.593   1.593   1.593   1.593   1.593   1.593   1.593   1.593   1.593   1.593   1.593   1.593   1.593
   117.50    1.593   1.593   1.593   1.593   1.593   1.593   1.593   1.593   1.593   1.593   1.593   1.593   1.593
   103.75    1.593   1.593   1.593   1.593   1.593   1.593   1.593   1.593   1.593   1.593   1.593   1.593   1.593
    90.00    1.593   1.593   1.593   1.593   1.593   1.593   1.593   1.593   1.593   1.593   1.593   1.593   1.593
    76.25    1.593   1.593   1.593   1.593   1.593   1.593   1.593   1.593   1.593   1.593   1.593   1.593   1.593
    62.50    1.593   1.593   1.593   1.593   1.593   1.593   1.593   1.593   1.593   1.593   1.593   1.593   1.593
    48.75    1.593   1.593   1.593   1.593   1.593   1.593   1.593   1.593   1.593   1.593   1.593   1.593   1.593
    35.00    1.593   1.593   1.593   1.593   1.593   1.593   1.593   1.593   1.593   1.593   1.593   1.593   1.593
    21.25    1.593   1.593   1.593   1.593   1.593   1.593   1.593   1.593   1.593   1.593   1.593   1.593   1.593
     7.50    1.593   1.593   1.593   1.593   1.593   1.593   1.593   1.593   1.593   1.593   1.593   1.593   1.593

   Mean standard deviation across all grid points:
      u component:    3.224 m/s
      v component:    2.602 m/s
      w component:    1.593 m/s


U-component (X) statistics from the interpolated hub point:

   Mean =  30.0000 m/s
   TI   =  10.5379 %


Processing complete.  16.266 CPU seconds used.
