
This summary file was generated by TurbSim (v2.00.07a-bjj, 14-Jun-2016) on 23-Mar-2020 at 10:13:13.


Runtime Options:

        31  Random seed #1
        32  Random seed #2
         F  Output binary HH turbulence parameters?
         F  Output formatted turbulence parameters?
         F  Output AeroDyn HH files?
         T  Output AeroDyn FF files?
         F  Output BLADED FF files?
         F  Output tower data?
         F  Output formatted FF files?
         F  Output coherent turbulence time step file?
         T  Clockwise rotation when looking downwind?
 0 -  NONE  IEC turbulence models scaled to exact specified standard deviation


Turbine/Model Specifications:

        13  Vertical grid-point matrix dimension
        13  Horizontal grid-point matrix dimension
     0.050  Time step [seconds]
  3630.000  Analysis time [seconds]
  3630.000  Usable output time [seconds]
    90.000  Hub height [m]
   165.000  Grid height [m]
   165.000  Grid width [m]
     0.000  Vertical flow angle [degrees]
     0.000  Horizontal flow angle [degrees]


Meteorological Boundary Conditions:

    IECKAI  IEC Kaimal spectral model
         3  IEC standard: IEC 61400-3 Ed. 1: 2006
    11.000  Percent turbulence intensity, IEC 61400-3 Ed. 1: 2006
       NTM  IEC Normal Turbulence Model
       N/A  IEC Extreme Turbulence Model (ETM) "c" parameter [m/s]
       IEC  Wind profile type
    90.000  Reference height [m]
    35.000  Reference wind speed [m/s]
       N/A  Jet height [m]
     0.140  Power law exponent
     0.030  Surface roughness length [m]


Non-IEC Meteorological Boundary Conditions:

       N/A  Site latitude [degrees]
       N/A  Gradient Richardson number
       N/A  Friction or shear velocity [m/s]
       N/A  Mixing layer depth [m]
       N/A  Mean hub u'w' Reynolds stress
       N/A  Mean hub u'v' Reynolds stress
       N/A  Mean hub v'w' Reynolds stress


Spatial Coherence Models:

       IEC  u-component coherence model
      NONE  v-component coherence model
      NONE  w-component coherence model
(   12.000, 0.353E-03)  u-component coherence parameters
                   N/A  v-component coherence parameters
                   N/A  w-component coherence parameters
       N/A  Coherence exponent


You have requested that the following file(s) be generated:

   3_35.bts (AeroDyn/TurbSim full-field wind file)


Turbulence Simulation Scaling Parameter Summary:

   Turbulence model used                            =  IEC Kaimal
   Turbulence characteristic                        =  User-specified
   IEC standard                                     =  IEC 61400-3 Ed. 1: 2006
   Mean wind speed at hub height                    =   35.000 m/s
   Characteristic value of standard deviation       =    3.850 m/s
   Turbulence scale                                 =   42.000 m
   u-component integral scale                       =  340.200 m
   Coherency scale                                  =  340.200 m
   Characteristic value of hub turbulence intensity =   11.000%
   Gradient Richardson number                       =    0.000

   Wind profile type                                =  Power law on rotor disk, logarithmic elsewhere
   Power law exponent                               =    0.140
   Mean shear across rotor disk                     =    0.083 (m/s)/m
   Assumed rotor diameter                           =  165.000 m
   Surface roughness length                         =    0.030 m

   Nyquist frequency of turbulent wind field        =   10.000 Hz

   Number of time steps in the FFT                  =    72600
   Number of time steps output                      =    72600
   Number of points simulated                       =      169


Mean Flow Angles:

   Vertical   =   0.0 degrees
   Horizontal =   0.0 degrees

Mean Wind Speed Profile:

   Height    Wind Speed   Horizontal Angle  Vertical Angle  U-comp (X)   V-comp (Y)   W-comp (Z)
     (m)        (m/s)         (degrees)       (degrees)       (m/s)        (m/s)        (m/s)   
   ------    ----------   ----------------  --------------  ----------   ----------   ----------
    172.5       38.34            0.00            0.00         38.34         0.00         0.00
    158.8       37.89            0.00            0.00         37.89         0.00         0.00
    145.0       37.42            0.00            0.00         37.42         0.00         0.00
    131.2       36.90            0.00            0.00         36.90         0.00         0.00
    117.5       36.33            0.00            0.00         36.33         0.00         0.00
    103.8       35.70            0.00            0.00         35.70         0.00         0.00
     90.0       35.00            0.00            0.00         35.00         0.00         0.00
     76.2       34.20            0.00            0.00         34.20         0.00         0.00
     62.5       33.26            0.00            0.00         33.26         0.00         0.00
     48.8       32.12            0.00            0.00         32.12         0.00         0.00
     35.0       30.67            0.00            0.00         30.67         0.00         0.00
     21.2       28.60            0.00            0.00         28.60         0.00         0.00
      7.5       24.72            0.00            0.00         24.72         0.00         0.00


Harvested Random Seeds after Generation of the Random Numbers:

    705062557 Harvested seed # 1
    839551995 Harvested seed # 2


Hub-Height Simulated Turbulence Statistical Summary:

   Type of Wind        Min (m/s)   Mean (m/s)    Max (m/s)  Sigma (m/s)       TI (%)
   ----------------    ---------   ----------    ---------  -----------       ------
   Longitudinal (u)        20.39        35.00        50.26        3.696       10.559
   Lateral (v)            -13.10        -0.00        12.59        3.031        8.660
   Vertical (w)            -8.04        -0.00         7.70        1.851        5.288
   U component             20.39        35.00        50.26        3.696       10.559
   V component            -13.10        -0.00        12.59        3.031        8.660
   W component             -8.04        -0.00         7.70        1.851        5.288
   Horizontal (U&V)        20.58        35.13        50.37        3.685       10.490
   Total                   20.71        35.18        50.37        3.682       10.464

                       Min Reynolds     Mean Reynolds    Max Reynolds    Correlation
   Product             Stress (m/s)^2   Stress (m/s)^2   Stress (m/s)^2  Coefficient
   ----------------    --------------   --------------   --------------  -----------
   u'w'                    -59.233             0.004            63.728         0.001
   u'v'                    -86.673            -0.259           102.674        -0.023
   v'w'                    -45.561            -0.008            49.664        -0.002


   Friction Velocity (Ustar)  =      0.065 m/s
   Maximum Instantaneous TKE  =    122.231 (m/s)^2
   Maximum Instantaneous CTKE =     53.704 (m/s)^2


Grid Point Variance Summary:

   Y-coord  -82.50  -68.75  -55.00  -41.25  -27.50  -13.75    0.00   13.75   27.50   41.25   55.00   68.75   82.50

   Height   Standard deviation at grid points for the u component:
   172.50    3.715   3.692   3.716   3.814   3.876   3.789   3.785   3.631   3.675   3.710   3.745   3.850   3.776
   158.75    3.682   3.589   3.595   3.693   3.767   3.754   3.642   3.591   3.607   3.725   3.824   3.866   3.813
   145.00    3.657   3.609   3.584   3.616   3.610   3.738   3.638   3.564   3.640   3.715   3.814   3.847   3.834
   131.25    3.628   3.659   3.601   3.569   3.636   3.679   3.666   3.662   3.719   3.799   3.901   3.912   3.840
   117.50    3.613   3.598   3.594   3.560   3.648   3.628   3.715   3.666   3.809   3.912   3.923   3.934   3.902
   103.75    3.638   3.539   3.632   3.623   3.668   3.663   3.715   3.731   3.768   3.855   3.836   3.793   3.816
    90.00    3.716   3.690   3.660   3.561   3.581   3.641   3.696   3.659   3.721   3.829   3.912   3.824   3.770
    76.25    3.725   3.655   3.679   3.624   3.661   3.701   3.734   3.660   3.733   3.827   3.896   3.826   3.805
    62.50    3.782   3.746   3.667   3.779   3.826   3.792   3.842   3.762   3.815   3.763   3.781   3.872   3.892
    48.75    3.743   3.746   3.746   3.865   3.852   3.841   3.789   3.759   3.782   3.826   3.824   3.825   3.820
    35.00    3.736   3.765   3.826   3.914   3.902   3.808   3.799   3.818   3.829   3.897   3.847   3.834   3.784
    21.25    3.840   3.840   3.877   3.920   3.924   3.891   3.831   3.776   3.808   3.860   3.917   3.843   3.773
     7.50    3.812   3.855   3.863   3.942   3.957   3.898   3.886   3.898   3.848   3.827   3.884   3.781   3.811

   Height   Standard deviation at grid points for the v component:
   172.50    3.031   3.031   3.031   3.031   3.031   3.031   3.031   3.031   3.031   3.031   3.031   3.031   3.031
   158.75    3.031   3.031   3.031   3.031   3.031   3.031   3.031   3.031   3.031   3.031   3.031   3.031   3.031
   145.00    3.031   3.031   3.031   3.031   3.031   3.031   3.031   3.031   3.031   3.031   3.031   3.031   3.031
   131.25    3.031   3.031   3.031   3.031   3.031   3.031   3.031   3.031   3.031   3.031   3.031   3.031   3.031
   117.50    3.031   3.031   3.031   3.031   3.031   3.031   3.031   3.031   3.031   3.031   3.031   3.031   3.031
   103.75    3.031   3.031   3.031   3.031   3.031   3.031   3.031   3.031   3.031   3.031   3.031   3.031   3.031
    90.00    3.031   3.031   3.031   3.031   3.031   3.031   3.031   3.031   3.031   3.031   3.031   3.031   3.031
    76.25    3.031   3.031   3.031   3.031   3.031   3.031   3.031   3.031   3.031   3.031   3.031   3.031   3.031
    62.50    3.031   3.031   3.031   3.031   3.031   3.031   3.031   3.031   3.031   3.031   3.031   3.031   3.031
    48.75    3.031   3.031   3.031   3.031   3.031   3.031   3.031   3.031   3.031   3.031   3.031   3.031   3.031
    35.00    3.031   3.031   3.031   3.031   3.031   3.031   3.031   3.031   3.031   3.031   3.031   3.031   3.031
    21.25    3.031   3.031   3.031   3.031   3.031   3.031   3.031   3.031   3.031   3.031   3.031   3.031   3.031
     7.50    3.031   3.031   3.031   3.031   3.031   3.031   3.031   3.031   3.031   3.031   3.031   3.031   3.031

   Height   Standard deviation at grid points for the w component:
   172.50    1.851   1.851   1.851   1.851   1.851   1.851   1.851   1.851   1.851   1.851   1.851   1.851   1.851
   158.75    1.851   1.851   1.851   1.851   1.851   1.851   1.851   1.851   1.851   1.851   1.851   1.851   1.851
   145.00    1.851   1.851   1.851   1.851   1.851   1.851   1.851   1.851   1.851   1.851   1.851   1.851   1.851
   131.25    1.851   1.851   1.851   1.851   1.851   1.851   1.851   1.851   1.851   1.851   1.851   1.851   1.851
   117.50    1.851   1.851   1.851   1.851   1.851   1.851   1.851   1.851   1.851   1.851   1.851   1.851   1.851
   103.75    1.851   1.851   1.851   1.851   1.851   1.851   1.851   1.851   1.851   1.851   1.851   1.851   1.851
    90.00    1.851   1.851   1.851   1.851   1.851   1.851   1.851   1.851   1.851   1.851   1.851   1.851   1.851
    76.25    1.851   1.851   1.851   1.851   1.851   1.851   1.851   1.851   1.851   1.851   1.851   1.851   1.851
    62.50    1.851   1.851   1.851   1.851   1.851   1.851   1.851   1.851   1.851   1.851   1.851   1.851   1.851
    48.75    1.851   1.851   1.851   1.851   1.851   1.851   1.851   1.851   1.851   1.851   1.851   1.851   1.851
    35.00    1.851   1.851   1.851   1.851   1.851   1.851   1.851   1.851   1.851   1.851   1.851   1.851   1.851
    21.25    1.851   1.851   1.851   1.851   1.851   1.851   1.851   1.851   1.851   1.851   1.851   1.851   1.851
     7.50    1.851   1.851   1.851   1.851   1.851   1.851   1.851   1.851   1.851   1.851   1.851   1.851   1.851

   Mean standard deviation across all grid points:
      u component:    3.760 m/s
      v component:    3.031 m/s
      w component:    1.851 m/s


U-component (X) statistics from the interpolated hub point:

   Mean =  35.0000 m/s
   TI   =  10.5591 %


Processing complete.  16.328 CPU seconds used.
