
This summary file was generated by TurbSim (v2.00.07a-bjj, 14-Jun-2016) on 23-Mar-2020 at 10:14:14.


Runtime Options:

        31  Random seed #1
        32  Random seed #2
         F  Output binary HH turbulence parameters?
         F  Output formatted turbulence parameters?
         F  Output AeroDyn HH files?
         T  Output AeroDyn FF files?
         F  Output BLADED FF files?
         F  Output tower data?
         F  Output formatted FF files?
         F  Output coherent turbulence time step file?
         T  Clockwise rotation when looking downwind?
 0 -  NONE  IEC turbulence models scaled to exact specified standard deviation


Turbine/Model Specifications:

        13  Vertical grid-point matrix dimension
        13  Horizontal grid-point matrix dimension
     0.050  Time step [seconds]
  3630.000  Analysis time [seconds]
  3630.000  Usable output time [seconds]
    90.000  Hub height [m]
   165.000  Grid height [m]
   165.000  Grid width [m]
     0.000  Vertical flow angle [degrees]
     0.000  Horizontal flow angle [degrees]


Meteorological Boundary Conditions:

    IECKAI  IEC Kaimal spectral model
         3  IEC standard: IEC 61400-3 Ed. 1: 2006
    11.000  Percent turbulence intensity, IEC 61400-3 Ed. 1: 2006
       NTM  IEC Normal Turbulence Model
       N/A  IEC Extreme Turbulence Model (ETM) "c" parameter [m/s]
       IEC  Wind profile type
    90.000  Reference height [m]
    45.000  Reference wind speed [m/s]
       N/A  Jet height [m]
     0.140  Power law exponent
     0.030  Surface roughness length [m]


Non-IEC Meteorological Boundary Conditions:

       N/A  Site latitude [degrees]
       N/A  Gradient Richardson number
       N/A  Friction or shear velocity [m/s]
       N/A  Mixing layer depth [m]
       N/A  Mean hub u'w' Reynolds stress
       N/A  Mean hub u'v' Reynolds stress
       N/A  Mean hub v'w' Reynolds stress


Spatial Coherence Models:

       IEC  u-component coherence model
      NONE  v-component coherence model
      NONE  w-component coherence model
(   12.000, 0.353E-03)  u-component coherence parameters
                   N/A  v-component coherence parameters
                   N/A  w-component coherence parameters
       N/A  Coherence exponent


You have requested that the following file(s) be generated:

   3_45.bts (AeroDyn/TurbSim full-field wind file)


Turbulence Simulation Scaling Parameter Summary:

   Turbulence model used                            =  IEC Kaimal
   Turbulence characteristic                        =  User-specified
   IEC standard                                     =  IEC 61400-3 Ed. 1: 2006
   Mean wind speed at hub height                    =   45.000 m/s
   Characteristic value of standard deviation       =    4.950 m/s
   Turbulence scale                                 =   42.000 m
   u-component integral scale                       =  340.200 m
   Coherency scale                                  =  340.200 m
   Characteristic value of hub turbulence intensity =   11.000%
   Gradient Richardson number                       =    0.000

   Wind profile type                                =  Power law on rotor disk, logarithmic elsewhere
   Power law exponent                               =    0.140
   Mean shear across rotor disk                     =    0.106 (m/s)/m
   Assumed rotor diameter                           =  165.000 m
   Surface roughness length                         =    0.030 m

   Nyquist frequency of turbulent wind field        =   10.000 Hz

   Number of time steps in the FFT                  =    72600
   Number of time steps output                      =    72600
   Number of points simulated                       =      169


Mean Flow Angles:

   Vertical   =   0.0 degrees
   Horizontal =   0.0 degrees

Mean Wind Speed Profile:

   Height    Wind Speed   Horizontal Angle  Vertical Angle  U-comp (X)   V-comp (Y)   W-comp (Z)
     (m)        (m/s)         (degrees)       (degrees)       (m/s)        (m/s)        (m/s)   
   ------    ----------   ----------------  --------------  ----------   ----------   ----------
    172.5       49.29            0.00            0.00         49.29         0.00         0.00
    158.8       48.72            0.00            0.00         48.72         0.00         0.00
    145.0       48.11            0.00            0.00         48.11         0.00         0.00
    131.2       47.44            0.00            0.00         47.44         0.00         0.00
    117.5       46.71            0.00            0.00         46.71         0.00         0.00
    103.8       45.90            0.00            0.00         45.90         0.00         0.00
     90.0       45.00            0.00            0.00         45.00         0.00         0.00
     76.2       43.97            0.00            0.00         43.97         0.00         0.00
     62.5       42.76            0.00            0.00         42.76         0.00         0.00
     48.8       41.30            0.00            0.00         41.30         0.00         0.00
     35.0       39.43            0.00            0.00         39.43         0.00         0.00
     21.2       36.77            0.00            0.00         36.77         0.00         0.00
      7.5       31.78            0.00            0.00         31.78         0.00         0.00


Harvested Random Seeds after Generation of the Random Numbers:

    705062557 Harvested seed # 1
    839551995 Harvested seed # 2


Hub-Height Simulated Turbulence Statistical Summary:

   Type of Wind        Min (m/s)   Mean (m/s)    Max (m/s)  Sigma (m/s)       TI (%)
   ----------------    ---------   ----------    ---------  -----------       ------
   Longitudinal (u)        26.52        45.00        64.11        4.761       10.580
   Lateral (v)            -16.96        -0.00        16.32        3.887        8.638
   Vertical (w)           -10.27        -0.00         9.88        2.362        5.250
   U component             26.52        45.00        64.11        4.761       10.580
   V component            -16.96        -0.00        16.32        3.887        8.638
   W component            -10.27        -0.00         9.88        2.362        5.250
   Horizontal (U&V)        26.73        45.17        64.22        4.748       10.512
   Total                   26.89        45.23        64.22        4.743       10.486

                       Min Reynolds     Mean Reynolds    Max Reynolds    Correlation
   Product             Stress (m/s)^2   Stress (m/s)^2   Stress (m/s)^2  Coefficient
   ----------------    --------------   --------------   --------------  -----------
   u'w'                   -101.218             0.017           108.425         0.002
   u'v'                   -150.802            -0.329           176.066        -0.018
   v'w'                    -76.303            -0.005            82.113        -0.001


   Friction Velocity (Ustar)  =      0.131 m/s
   Maximum Instantaneous TKE  =    189.720 (m/s)^2
   Maximum Instantaneous CTKE =     91.753 (m/s)^2


Grid Point Variance Summary:

   Y-coord  -82.50  -68.75  -55.00  -41.25  -27.50  -13.75    0.00   13.75   27.50   41.25   55.00   68.75   82.50

   Height   Standard deviation at grid points for the u component:
   172.50    4.753   4.733   4.768   4.881   4.950   4.860   4.853   4.676   4.733   4.782   4.827   4.946   4.855
   158.75    4.726   4.609   4.628   4.742   4.822   4.814   4.701   4.629   4.654   4.793   4.911   4.961   4.892
   145.00    4.705   4.642   4.622   4.653   4.646   4.795   4.681   4.603   4.694   4.780   4.898   4.943   4.924
   131.25    4.671   4.697   4.631   4.592   4.675   4.730   4.720   4.717   4.782   4.879   5.000   5.010   4.927
   117.50    4.654   4.629   4.627   4.583   4.693   4.680   4.784   4.736   4.903   5.018   5.021   5.034   4.990
   103.75    4.683   4.569   4.672   4.651   4.705   4.705   4.785   4.805   4.853   4.951   4.925   4.872   4.900
    90.00    4.768   4.737   4.701   4.600   4.612   4.693   4.761   4.730   4.799   4.915   5.013   4.911   4.854
    76.25    4.775   4.708   4.726   4.684   4.724   4.785   4.827   4.737   4.815   4.913   4.998   4.909   4.897
    62.50    4.861   4.823   4.726   4.857   4.916   4.885   4.937   4.851   4.906   4.856   4.862   4.981   5.001
    48.75    4.812   4.814   4.816   4.954   4.940   4.948   4.878   4.845   4.868   4.914   4.905   4.914   4.913
    35.00    4.814   4.839   4.908   5.012   5.003   4.905   4.893   4.917   4.942   4.990   4.928   4.926   4.861
    21.25    4.941   4.929   4.966   5.015   5.032   4.997   4.929   4.867   4.909   4.967   5.009   4.935   4.849
     7.50    4.898   4.942   4.950   5.043   5.063   5.006   5.000   5.012   4.949   4.919   4.981   4.867   4.901

   Height   Standard deviation at grid points for the v component:
   172.50    3.887   3.887   3.887   3.887   3.887   3.887   3.887   3.887   3.887   3.887   3.887   3.887   3.887
   158.75    3.887   3.887   3.887   3.887   3.887   3.887   3.887   3.887   3.887   3.887   3.887   3.887   3.887
   145.00    3.887   3.887   3.887   3.887   3.887   3.887   3.887   3.887   3.887   3.887   3.887   3.887   3.887
   131.25    3.887   3.887   3.887   3.887   3.887   3.887   3.887   3.887   3.887   3.887   3.887   3.887   3.887
   117.50    3.887   3.887   3.887   3.887   3.887   3.887   3.887   3.887   3.887   3.887   3.887   3.887   3.887
   103.75    3.887   3.887   3.887   3.887   3.887   3.887   3.887   3.887   3.887   3.887   3.887   3.887   3.887
    90.00    3.887   3.887   3.887   3.887   3.887   3.887   3.887   3.887   3.887   3.887   3.887   3.887   3.887
    76.25    3.887   3.887   3.887   3.887   3.887   3.887   3.887   3.887   3.887   3.887   3.887   3.887   3.887
    62.50    3.887   3.887   3.887   3.887   3.887   3.887   3.887   3.887   3.887   3.887   3.887   3.887   3.887
    48.75    3.887   3.887   3.887   3.887   3.887   3.887   3.887   3.887   3.887   3.887   3.887   3.887   3.887
    35.00    3.887   3.887   3.887   3.887   3.887   3.887   3.887   3.887   3.887   3.887   3.887   3.887   3.887
    21.25    3.887   3.887   3.887   3.887   3.887   3.887   3.887   3.887   3.887   3.887   3.887   3.887   3.887
     7.50    3.887   3.887   3.887   3.887   3.887   3.887   3.887   3.887   3.887   3.887   3.887   3.887   3.887

   Height   Standard deviation at grid points for the w component:
   172.50    2.362   2.362   2.362   2.362   2.362   2.362   2.362   2.362   2.362   2.362   2.362   2.362   2.362
   158.75    2.362   2.362   2.362   2.362   2.362   2.362   2.362   2.362   2.362   2.362   2.362   2.362   2.362
   145.00    2.362   2.362   2.362   2.362   2.362   2.362   2.362   2.362   2.362   2.362   2.362   2.362   2.362
   131.25    2.362   2.362   2.362   2.362   2.362   2.362   2.362   2.362   2.362   2.362   2.362   2.362   2.362
   117.50    2.362   2.362   2.362   2.362   2.362   2.362   2.362   2.362   2.362   2.362   2.362   2.362   2.362
   103.75    2.362   2.362   2.362   2.362   2.362   2.362   2.362   2.362   2.362   2.362   2.362   2.362   2.362
    90.00    2.362   2.362   2.362   2.362   2.362   2.362   2.362   2.362   2.362   2.362   2.362   2.362   2.362
    76.25    2.362   2.362   2.362   2.362   2.362   2.362   2.362   2.362   2.362   2.362   2.362   2.362   2.362
    62.50    2.362   2.362   2.362   2.362   2.362   2.362   2.362   2.362   2.362   2.362   2.362   2.362   2.362
    48.75    2.362   2.362   2.362   2.362   2.362   2.362   2.362   2.362   2.362   2.362   2.362   2.362   2.362
    35.00    2.362   2.362   2.362   2.362   2.362   2.362   2.362   2.362   2.362   2.362   2.362   2.362   2.362
    21.25    2.362   2.362   2.362   2.362   2.362   2.362   2.362   2.362   2.362   2.362   2.362   2.362   2.362
     7.50    2.362   2.362   2.362   2.362   2.362   2.362   2.362   2.362   2.362   2.362   2.362   2.362   2.362

   Mean standard deviation across all grid points:
      u component:    4.834 m/s
      v component:    3.887 m/s
      w component:    2.362 m/s


U-component (X) statistics from the interpolated hub point:

   Mean =  45.0000 m/s
   TI   =  10.5804 %


Processing complete.  16.203 CPU seconds used.
