
This summary file was generated by TurbSim (v2.00.07a-bjj, 14-Jun-2016) on 23-Mar-2020 at 10:14:38.


Runtime Options:

        31  Random seed #1
        32  Random seed #2
         F  Output binary HH turbulence parameters?
         F  Output formatted turbulence parameters?
         F  Output AeroDyn HH files?
         T  Output AeroDyn FF files?
         F  Output BLADED FF files?
         F  Output tower data?
         F  Output formatted FF files?
         F  Output coherent turbulence time step file?
         T  Clockwise rotation when looking downwind?
 0 -  NONE  IEC turbulence models scaled to exact specified standard deviation


Turbine/Model Specifications:

        13  Vertical grid-point matrix dimension
        13  Horizontal grid-point matrix dimension
     0.050  Time step [seconds]
  3630.000  Analysis time [seconds]
  3630.000  Usable output time [seconds]
    90.000  Hub height [m]
   165.000  Grid height [m]
   165.000  Grid width [m]
     0.000  Vertical flow angle [degrees]
     0.000  Horizontal flow angle [degrees]


Meteorological Boundary Conditions:

    IECKAI  IEC Kaimal spectral model
         3  IEC standard: IEC 61400-3 Ed. 1: 2006
    11.000  Percent turbulence intensity, IEC 61400-3 Ed. 1: 2006
       NTM  IEC Normal Turbulence Model
       N/A  IEC Extreme Turbulence Model (ETM) "c" parameter [m/s]
       IEC  Wind profile type
    90.000  Reference height [m]
    50.000  Reference wind speed [m/s]
       N/A  Jet height [m]
     0.140  Power law exponent
     0.030  Surface roughness length [m]


Non-IEC Meteorological Boundary Conditions:

       N/A  Site latitude [degrees]
       N/A  Gradient Richardson number
       N/A  Friction or shear velocity [m/s]
       N/A  Mixing layer depth [m]
       N/A  Mean hub u'w' Reynolds stress
       N/A  Mean hub u'v' Reynolds stress
       N/A  Mean hub v'w' Reynolds stress


Spatial Coherence Models:

       IEC  u-component coherence model
      NONE  v-component coherence model
      NONE  w-component coherence model
(   12.000, 0.353E-03)  u-component coherence parameters
                   N/A  v-component coherence parameters
                   N/A  w-component coherence parameters
       N/A  Coherence exponent


You have requested that the following file(s) be generated:

   3_50.bts (AeroDyn/TurbSim full-field wind file)


Turbulence Simulation Scaling Parameter Summary:

   Turbulence model used                            =  IEC Kaimal
   Turbulence characteristic                        =  User-specified
   IEC standard                                     =  IEC 61400-3 Ed. 1: 2006
   Mean wind speed at hub height                    =   50.000 m/s
   Characteristic value of standard deviation       =    5.500 m/s
   Turbulence scale                                 =   42.000 m
   u-component integral scale                       =  340.200 m
   Coherency scale                                  =  340.200 m
   Characteristic value of hub turbulence intensity =   11.000%
   Gradient Richardson number                       =    0.000

   Wind profile type                                =  Power law on rotor disk, logarithmic elsewhere
   Power law exponent                               =    0.140
   Mean shear across rotor disk                     =    0.118 (m/s)/m
   Assumed rotor diameter                           =  165.000 m
   Surface roughness length                         =    0.030 m

   Nyquist frequency of turbulent wind field        =   10.000 Hz

   Number of time steps in the FFT                  =    72600
   Number of time steps output                      =    72600
   Number of points simulated                       =      169


Mean Flow Angles:

   Vertical   =   0.0 degrees
   Horizontal =   0.0 degrees

Mean Wind Speed Profile:

   Height    Wind Speed   Horizontal Angle  Vertical Angle  U-comp (X)   V-comp (Y)   W-comp (Z)
     (m)        (m/s)         (degrees)       (degrees)       (m/s)        (m/s)        (m/s)   
   ------    ----------   ----------------  --------------  ----------   ----------   ----------
    172.5       54.77            0.00            0.00         54.77         0.00         0.00
    158.8       54.13            0.00            0.00         54.13         0.00         0.00
    145.0       53.45            0.00            0.00         53.45         0.00         0.00
    131.2       52.71            0.00            0.00         52.71         0.00         0.00
    117.5       51.90            0.00            0.00         51.90         0.00         0.00
    103.8       51.01            0.00            0.00         51.01         0.00         0.00
     90.0       50.00            0.00            0.00         50.00         0.00         0.00
     76.2       48.85            0.00            0.00         48.85         0.00         0.00
     62.5       47.51            0.00            0.00         47.51         0.00         0.00
     48.8       45.89            0.00            0.00         45.89         0.00         0.00
     35.0       43.81            0.00            0.00         43.81         0.00         0.00
     21.2       40.85            0.00            0.00         40.85         0.00         0.00
      7.5       35.31            0.00            0.00         35.31         0.00         0.00


Harvested Random Seeds after Generation of the Random Numbers:

    705062557 Harvested seed # 1
    839551995 Harvested seed # 2


Hub-Height Simulated Turbulence Statistical Summary:

   Type of Wind        Min (m/s)   Mean (m/s)    Max (m/s)  Sigma (m/s)       TI (%)
   ----------------    ---------   ----------    ---------  -----------       ------
   Longitudinal (u)        29.65        50.00        71.03        5.293       10.585
   Lateral (v)            -18.88        -0.00        18.18        4.314        8.627
   Vertical (w)           -11.38        -0.00        10.95        2.616        5.232
   U component             29.65        50.00        71.03        5.293       10.585
   V component            -18.88        -0.00        18.18        4.314        8.627
   W component            -11.38        -0.00        10.95        2.616        5.232
   Horizontal (U&V)        29.85        50.19        71.16        5.278       10.517
   Total                   30.04        50.26        71.16        5.273       10.492

                       Min Reynolds     Mean Reynolds    Max Reynolds    Correlation
   Product             Stress (m/s)^2   Stress (m/s)^2   Stress (m/s)^2  Coefficient
   ----------------    --------------   --------------   --------------  -----------
   u'w'                   -125.950             0.023           134.804         0.002
   u'v'                   -188.832            -0.360           219.939        -0.016
   v'w'                    -94.420            -0.003           101.204        -0.000


   Friction Velocity (Ustar)  =      0.150 m/s
   Maximum Instantaneous TKE  =    230.270 (m/s)^2
   Maximum Instantaneous CTKE =    114.455 (m/s)^2


Grid Point Variance Summary:

   Y-coord  -82.50  -68.75  -55.00  -41.25  -27.50  -13.75    0.00   13.75   27.50   41.25   55.00   68.75   82.50

   Height   Standard deviation at grid points for the u component:
   172.50    5.272   5.254   5.295   5.414   5.486   5.395   5.387   5.201   5.264   5.319   5.368   5.493   5.394
   158.75    5.249   5.122   5.147   5.268   5.350   5.345   5.234   5.152   5.181   5.330   5.454   5.508   5.430
   145.00    5.231   5.161   5.144   5.175   5.167   5.324   5.205   5.126   5.225   5.316   5.441   5.491   5.468
   131.25    5.194   5.218   5.149   5.106   5.197   5.258   5.250   5.247   5.316   5.419   5.549   5.558   5.470
   117.50    5.176   5.146   5.146   5.097   5.217   5.206   5.318   5.272   5.452   5.570   5.569   5.583   5.534
   103.75    5.208   5.088   5.195   5.168   5.224   5.226   5.319   5.342   5.394   5.496   5.468   5.412   5.441
    90.00    5.295   5.263   5.223   5.121   5.130   5.219   5.293   5.264   5.337   5.456   5.560   5.454   5.397
    76.25    5.301   5.237   5.252   5.215   5.256   5.326   5.371   5.274   5.354   5.454   5.547   5.450   5.443
    62.50    5.400   5.361   5.257   5.396   5.460   5.429   5.481   5.393   5.451   5.402   5.402   5.533   5.553
    48.75    5.347   5.348   5.351   5.498   5.482   5.500   5.421   5.387   5.410   5.458   5.446   5.457   5.458
    35.00    5.354   5.376   5.448   5.558   5.553   5.453   5.438   5.465   5.496   5.536   5.468   5.473   5.399
    21.25    5.491   5.473   5.509   5.560   5.584   5.548   5.476   5.411   5.459   5.520   5.555   5.482   5.388
     7.50    5.440   5.484   5.493   5.592   5.614   5.557   5.555   5.568   5.499   5.464   5.530   5.411   5.446

   Height   Standard deviation at grid points for the v component:
   172.50    4.314   4.314   4.314   4.314   4.314   4.314   4.314   4.314   4.314   4.314   4.314   4.314   4.314
   158.75    4.314   4.314   4.314   4.314   4.314   4.314   4.314   4.314   4.314   4.314   4.314   4.314   4.314
   145.00    4.314   4.314   4.314   4.314   4.314   4.314   4.314   4.314   4.314   4.314   4.314   4.314   4.314
   131.25    4.314   4.314   4.314   4.314   4.314   4.314   4.314   4.314   4.314   4.314   4.314   4.314   4.314
   117.50    4.314   4.314   4.314   4.314   4.314   4.314   4.314   4.314   4.314   4.314   4.314   4.314   4.314
   103.75    4.314   4.314   4.314   4.314   4.314   4.314   4.314   4.314   4.314   4.314   4.314   4.314   4.314
    90.00    4.314   4.314   4.314   4.314   4.314   4.314   4.314   4.314   4.314   4.314   4.314   4.314   4.314
    76.25    4.314   4.314   4.314   4.314   4.314   4.314   4.314   4.314   4.314   4.314   4.314   4.314   4.314
    62.50    4.314   4.314   4.314   4.314   4.314   4.314   4.314   4.314   4.314   4.314   4.314   4.314   4.314
    48.75    4.314   4.314   4.314   4.314   4.314   4.314   4.314   4.314   4.314   4.314   4.314   4.314   4.314
    35.00    4.314   4.314   4.314   4.314   4.314   4.314   4.314   4.314   4.314   4.314   4.314   4.314   4.314
    21.25    4.314   4.314   4.314   4.314   4.314   4.314   4.314   4.314   4.314   4.314   4.314   4.314   4.314
     7.50    4.314   4.314   4.314   4.314   4.314   4.314   4.314   4.314   4.314   4.314   4.314   4.314   4.314

   Height   Standard deviation at grid points for the w component:
   172.50    2.616   2.616   2.616   2.616   2.616   2.616   2.616   2.616   2.616   2.616   2.616   2.616   2.616
   158.75    2.616   2.616   2.616   2.616   2.616   2.616   2.616   2.616   2.616   2.616   2.616   2.616   2.616
   145.00    2.616   2.616   2.616   2.616   2.616   2.616   2.616   2.616   2.616   2.616   2.616   2.616   2.616
   131.25    2.616   2.616   2.616   2.616   2.616   2.616   2.616   2.616   2.616   2.616   2.616   2.616   2.616
   117.50    2.616   2.616   2.616   2.616   2.616   2.616   2.616   2.616   2.616   2.616   2.616   2.616   2.616
   103.75    2.616   2.616   2.616   2.616   2.616   2.616   2.616   2.616   2.616   2.616   2.616   2.616   2.616
    90.00    2.616   2.616   2.616   2.616   2.616   2.616   2.616   2.616   2.616   2.616   2.616   2.616   2.616
    76.25    2.616   2.616   2.616   2.616   2.616   2.616   2.616   2.616   2.616   2.616   2.616   2.616   2.616
    62.50    2.616   2.616   2.616   2.616   2.616   2.616   2.616   2.616   2.616   2.616   2.616   2.616   2.616
    48.75    2.616   2.616   2.616   2.616   2.616   2.616   2.616   2.616   2.616   2.616   2.616   2.616   2.616
    35.00    2.616   2.616   2.616   2.616   2.616   2.616   2.616   2.616   2.616   2.616   2.616   2.616   2.616
    21.25    2.616   2.616   2.616   2.616   2.616   2.616   2.616   2.616   2.616   2.616   2.616   2.616   2.616
     7.50    2.616   2.616   2.616   2.616   2.616   2.616   2.616   2.616   2.616   2.616   2.616   2.616   2.616

   Mean standard deviation across all grid points:
      u component:    5.371 m/s
      v component:    4.314 m/s
      w component:    2.616 m/s


U-component (X) statistics from the interpolated hub point:

   Mean =  50.0000 m/s
   TI   =  10.5853 %


Processing complete.  16.234 CPU seconds used.
