
This summary file was generated by TurbSim (v2.00.07a-bjj, 14-Jun-2016) on 23-Mar-2020 at 10:16:04.


Runtime Options:

        31  Random seed #1
        32  Random seed #2
         F  Output binary HH turbulence parameters?
         F  Output formatted turbulence parameters?
         F  Output AeroDyn HH files?
         T  Output AeroDyn FF files?
         F  Output BLADED FF files?
         F  Output tower data?
         F  Output formatted FF files?
         F  Output coherent turbulence time step file?
         T  Clockwise rotation when looking downwind?
 0 -  NONE  IEC turbulence models scaled to exact specified standard deviation


Turbine/Model Specifications:

        13  Vertical grid-point matrix dimension
        13  Horizontal grid-point matrix dimension
     0.050  Time step [seconds]
  3630.000  Analysis time [seconds]
  3630.000  Usable output time [seconds]
    90.000  Hub height [m]
   165.000  Grid height [m]
   165.000  Grid width [m]
     0.000  Vertical flow angle [degrees]
     0.000  Horizontal flow angle [degrees]


Meteorological Boundary Conditions:

    IECKAI  IEC Kaimal spectral model
         3  IEC standard: IEC 61400-3 Ed. 1: 2006
    11.000  Percent turbulence intensity, IEC 61400-3 Ed. 1: 2006
       NTM  IEC Normal Turbulence Model
       N/A  IEC Extreme Turbulence Model (ETM) "c" parameter [m/s]
       IEC  Wind profile type
    90.000  Reference height [m]
    65.000  Reference wind speed [m/s]
       N/A  Jet height [m]
     0.140  Power law exponent
     0.030  Surface roughness length [m]


Non-IEC Meteorological Boundary Conditions:

       N/A  Site latitude [degrees]
       N/A  Gradient Richardson number
       N/A  Friction or shear velocity [m/s]
       N/A  Mixing layer depth [m]
       N/A  Mean hub u'w' Reynolds stress
       N/A  Mean hub u'v' Reynolds stress
       N/A  Mean hub v'w' Reynolds stress


Spatial Coherence Models:

       IEC  u-component coherence model
      NONE  v-component coherence model
      NONE  w-component coherence model
(   12.000, 0.353E-03)  u-component coherence parameters
                   N/A  v-component coherence parameters
                   N/A  w-component coherence parameters
       N/A  Coherence exponent


You have requested that the following file(s) be generated:

   3_65.bts (AeroDyn/TurbSim full-field wind file)


Turbulence Simulation Scaling Parameter Summary:

   Turbulence model used                            =  IEC Kaimal
   Turbulence characteristic                        =  User-specified
   IEC standard                                     =  IEC 61400-3 Ed. 1: 2006
   Mean wind speed at hub height                    =   65.000 m/s
   Characteristic value of standard deviation       =    7.150 m/s
   Turbulence scale                                 =   42.000 m
   u-component integral scale                       =  340.200 m
   Coherency scale                                  =  340.200 m
   Characteristic value of hub turbulence intensity =   11.000%
   Gradient Richardson number                       =    0.000

   Wind profile type                                =  Power law on rotor disk, logarithmic elsewhere
   Power law exponent                               =    0.140
   Mean shear across rotor disk                     =    0.153 (m/s)/m
   Assumed rotor diameter                           =  165.000 m
   Surface roughness length                         =    0.030 m

   Nyquist frequency of turbulent wind field        =   10.000 Hz

   Number of time steps in the FFT                  =    72600
   Number of time steps output                      =    72600
   Number of points simulated                       =      169


Mean Flow Angles:

   Vertical   =   0.0 degrees
   Horizontal =   0.0 degrees

Mean Wind Speed Profile:

   Height    Wind Speed   Horizontal Angle  Vertical Angle  U-comp (X)   V-comp (Y)   W-comp (Z)
     (m)        (m/s)         (degrees)       (degrees)       (m/s)        (m/s)        (m/s)   
   ------    ----------   ----------------  --------------  ----------   ----------   ----------
    172.5       71.20            0.00            0.00         71.20         0.00         0.00
    158.8       70.38            0.00            0.00         70.38         0.00         0.00
    145.0       69.49            0.00            0.00         69.49         0.00         0.00
    131.2       68.53            0.00            0.00         68.53         0.00         0.00
    117.5       67.47            0.00            0.00         67.47         0.00         0.00
    103.8       66.31            0.00            0.00         66.31         0.00         0.00
     90.0       65.00            0.00            0.00         65.00         0.00         0.00
     76.2       63.51            0.00            0.00         63.51         0.00         0.00
     62.5       61.77            0.00            0.00         61.77         0.00         0.00
     48.8       59.65            0.00            0.00         59.65         0.00         0.00
     35.0       56.95            0.00            0.00         56.95         0.00         0.00
     21.2       53.11            0.00            0.00         53.11         0.00         0.00
      7.5       45.90            0.00            0.00         45.90         0.00         0.00


Harvested Random Seeds after Generation of the Random Numbers:

    705062557 Harvested seed # 1
    839551995 Harvested seed # 2


Hub-Height Simulated Turbulence Statistical Summary:

   Type of Wind        Min (m/s)   Mean (m/s)    Max (m/s)  Sigma (m/s)       TI (%)
   ----------------    ---------   ----------    ---------  -----------       ------
   Longitudinal (u)        39.21        65.00        91.85        6.884       10.591
   Lateral (v)            -24.63        -0.00        23.79        5.588        8.597
   Vertical (w)           -14.61        -0.00        14.18        3.368        5.181
   U component             39.21        65.00        91.85        6.884       10.591
   V component            -24.63        -0.00        23.79        5.588        8.597
   W component            -14.61        -0.00        14.18        3.368        5.181
   Horizontal (U&V)        39.41        65.24        92.03        6.865       10.523
   Total                   39.66        65.33        92.03        6.858       10.498

                       Min Reynolds     Mean Reynolds    Max Reynolds    Correlation
   Product             Stress (m/s)^2   Stress (m/s)^2   Stress (m/s)^2  Coefficient
   ----------------    --------------   --------------   --------------  -----------
   u'w'                   -214.132             0.029           229.096         0.001
   u'v'                   -324.111            -0.436           379.139        -0.011
   v'w'                   -166.066             0.008           169.587         0.000


   Friction Velocity (Ustar)  =      0.172 m/s
   Maximum Instantaneous TKE  =    386.846 (m/s)^2
   Maximum Instantaneous CTKE =    196.683 (m/s)^2


Grid Point Variance Summary:

   Y-coord  -82.50  -68.75  -55.00  -41.25  -27.50  -13.75    0.00   13.75   27.50   41.25   55.00   68.75   82.50

   Height   Standard deviation at grid points for the u component:
   172.50    6.834   6.821   6.881   7.010   7.091   7.001   6.994   6.786   6.864   6.931   6.993   7.131   7.010
   158.75    6.822   6.672   6.711   6.846   6.935   6.942   6.839   6.731   6.775   6.951   7.085   7.146   7.045
   145.00    6.816   6.727   6.717   6.749   6.742   6.917   6.785   6.706   6.827   6.932   7.072   7.135   7.101
   131.25    6.771   6.791   6.711   6.655   6.768   6.849   6.844   6.840   6.923   7.040   7.195   7.198   7.098
   117.50    6.751   6.707   6.712   6.652   6.793   6.788   6.920   6.883   7.097   7.222   7.206   7.224   7.161
   103.75    6.790   6.653   6.772   6.726   6.786   6.791   6.919   6.948   7.017   7.126   7.092   7.029   7.062
    90.00    6.882   6.844   6.796   6.692   6.691   6.797   6.884   6.867   6.948   7.076   7.196   7.082   7.023
    76.25    6.883   6.826   6.832   6.812   6.851   6.942   6.999   6.882   6.969   7.076   7.194   7.069   7.080
    62.50    7.015   6.978   6.849   7.013   7.086   7.055   7.107   7.012   7.078   7.040   7.021   7.182   7.202
    48.75    6.952   6.949   6.956   7.126   7.104   7.151   7.042   7.009   7.031   7.092   7.070   7.084   7.091
    35.00    6.975   6.986   7.065   7.190   7.195   7.091   7.068   7.104   7.155   7.171   7.088   7.116   7.015
    21.25    7.135   7.101   7.134   7.188   7.230   7.193   7.112   7.038   7.105   7.173   7.191   7.122   7.007
     7.50    7.062   7.108   7.116   7.231   7.256   7.204   7.215   7.229   7.145   7.099   7.174   7.045   7.082

   Height   Standard deviation at grid points for the v component:
   172.50    5.588   5.588   5.588   5.588   5.588   5.588   5.588   5.588   5.588   5.588   5.588   5.588   5.588
   158.75    5.588   5.588   5.588   5.588   5.588   5.588   5.588   5.588   5.588   5.588   5.588   5.588   5.588
   145.00    5.588   5.588   5.588   5.588   5.588   5.588   5.588   5.588   5.588   5.588   5.588   5.588   5.588
   131.25    5.588   5.588   5.588   5.588   5.588   5.588   5.588   5.588   5.588   5.588   5.588   5.588   5.588
   117.50    5.588   5.588   5.588   5.588   5.588   5.588   5.588   5.588   5.588   5.588   5.588   5.588   5.588
   103.75    5.588   5.588   5.588   5.588   5.588   5.588   5.588   5.588   5.588   5.588   5.588   5.588   5.588
    90.00    5.588   5.588   5.588   5.588   5.588   5.588   5.588   5.588   5.588   5.588   5.588   5.588   5.588
    76.25    5.588   5.588   5.588   5.588   5.588   5.588   5.588   5.588   5.588   5.588   5.588   5.588   5.588
    62.50    5.588   5.588   5.588   5.588   5.588   5.588   5.588   5.588   5.588   5.588   5.588   5.588   5.588
    48.75    5.588   5.588   5.588   5.588   5.588   5.588   5.588   5.588   5.588   5.588   5.588   5.588   5.588
    35.00    5.588   5.588   5.588   5.588   5.588   5.588   5.588   5.588   5.588   5.588   5.588   5.588   5.588
    21.25    5.588   5.588   5.588   5.588   5.588   5.588   5.588   5.588   5.588   5.588   5.588   5.588   5.588
     7.50    5.588   5.588   5.588   5.588   5.588   5.588   5.588   5.588   5.588   5.588   5.588   5.588   5.588

   Height   Standard deviation at grid points for the w component:
   172.50    3.368   3.368   3.368   3.368   3.368   3.368   3.368   3.368   3.368   3.368   3.368   3.368   3.368
   158.75    3.368   3.368   3.368   3.368   3.368   3.368   3.368   3.368   3.368   3.368   3.368   3.368   3.368
   145.00    3.368   3.368   3.368   3.368   3.368   3.368   3.368   3.368   3.368   3.368   3.368   3.368   3.368
   131.25    3.368   3.368   3.368   3.368   3.368   3.368   3.368   3.368   3.368   3.368   3.368   3.368   3.368
   117.50    3.368   3.368   3.368   3.368   3.368   3.368   3.368   3.368   3.368   3.368   3.368   3.368   3.368
   103.75    3.368   3.368   3.368   3.368   3.368   3.368   3.368   3.368   3.368   3.368   3.368   3.368   3.368
    90.00    3.368   3.368   3.368   3.368   3.368   3.368   3.368   3.368   3.368   3.368   3.368   3.368   3.368
    76.25    3.368   3.368   3.368   3.368   3.368   3.368   3.368   3.368   3.368   3.368   3.368   3.368   3.368
    62.50    3.368   3.368   3.368   3.368   3.368   3.368   3.368   3.368   3.368   3.368   3.368   3.368   3.368
    48.75    3.368   3.368   3.368   3.368   3.368   3.368   3.368   3.368   3.368   3.368   3.368   3.368   3.368
    35.00    3.368   3.368   3.368   3.368   3.368   3.368   3.368   3.368   3.368   3.368   3.368   3.368   3.368
    21.25    3.368   3.368   3.368   3.368   3.368   3.368   3.368   3.368   3.368   3.368   3.368   3.368   3.368
     7.50    3.368   3.368   3.368   3.368   3.368   3.368   3.368   3.368   3.368   3.368   3.368   3.368   3.368

   Mean standard deviation across all grid points:
      u component:    6.982 m/s
      v component:    5.588 m/s
      w component:    3.368 m/s


U-component (X) statistics from the interpolated hub point:

   Mean =  65.0000 m/s
   TI   =  10.5910 %


Processing complete.  16.094 CPU seconds used.
