
This summary file was generated by TurbSim (v2.00.07a-bjj, 14-Jun-2016) on 23-Mar-2020 at 10:17:10.


Runtime Options:

        31  Random seed #1
        32  Random seed #2
         F  Output binary HH turbulence parameters?
         F  Output formatted turbulence parameters?
         F  Output AeroDyn HH files?
         T  Output AeroDyn FF files?
         F  Output BLADED FF files?
         F  Output tower data?
         F  Output formatted FF files?
         F  Output coherent turbulence time step file?
         T  Clockwise rotation when looking downwind?
 0 -  NONE  IEC turbulence models scaled to exact specified standard deviation


Turbine/Model Specifications:

        13  Vertical grid-point matrix dimension
        13  Horizontal grid-point matrix dimension
     0.050  Time step [seconds]
  3630.000  Analysis time [seconds]
  3630.000  Usable output time [seconds]
    90.000  Hub height [m]
   165.000  Grid height [m]
   165.000  Grid width [m]
     0.000  Vertical flow angle [degrees]
     0.000  Horizontal flow angle [degrees]


Meteorological Boundary Conditions:

    IECKAI  IEC Kaimal spectral model
         3  IEC standard: IEC 61400-3 Ed. 1: 2006
    11.000  Percent turbulence intensity, IEC 61400-3 Ed. 1: 2006
       NTM  IEC Normal Turbulence Model
       N/A  IEC Extreme Turbulence Model (ETM) "c" parameter [m/s]
       IEC  Wind profile type
    90.000  Reference height [m]
    80.000  Reference wind speed [m/s]
       N/A  Jet height [m]
     0.140  Power law exponent
     0.030  Surface roughness length [m]


Non-IEC Meteorological Boundary Conditions:

       N/A  Site latitude [degrees]
       N/A  Gradient Richardson number
       N/A  Friction or shear velocity [m/s]
       N/A  Mixing layer depth [m]
       N/A  Mean hub u'w' Reynolds stress
       N/A  Mean hub u'v' Reynolds stress
       N/A  Mean hub v'w' Reynolds stress


Spatial Coherence Models:

       IEC  u-component coherence model
      NONE  v-component coherence model
      NONE  w-component coherence model
(   12.000, 0.353E-03)  u-component coherence parameters
                   N/A  v-component coherence parameters
                   N/A  w-component coherence parameters
       N/A  Coherence exponent


You have requested that the following file(s) be generated:

   3_80.bts (AeroDyn/TurbSim full-field wind file)


Turbulence Simulation Scaling Parameter Summary:

   Turbulence model used                            =  IEC Kaimal
   Turbulence characteristic                        =  User-specified
   IEC standard                                     =  IEC 61400-3 Ed. 1: 2006
   Mean wind speed at hub height                    =   80.000 m/s
   Characteristic value of standard deviation       =    8.800 m/s
   Turbulence scale                                 =   42.000 m
   u-component integral scale                       =  340.200 m
   Coherency scale                                  =  340.200 m
   Characteristic value of hub turbulence intensity =   11.000%
   Gradient Richardson number                       =    0.000

   Wind profile type                                =  Power law on rotor disk, logarithmic elsewhere
   Power law exponent                               =    0.140
   Mean shear across rotor disk                     =    0.189 (m/s)/m
   Assumed rotor diameter                           =  165.000 m
   Surface roughness length                         =    0.030 m

   Nyquist frequency of turbulent wind field        =   10.000 Hz

   Number of time steps in the FFT                  =    72600
   Number of time steps output                      =    72600
   Number of points simulated                       =      169


Mean Flow Angles:

   Vertical   =   0.0 degrees
   Horizontal =   0.0 degrees

Mean Wind Speed Profile:

   Height    Wind Speed   Horizontal Angle  Vertical Angle  U-comp (X)   V-comp (Y)   W-comp (Z)
     (m)        (m/s)         (degrees)       (degrees)       (m/s)        (m/s)        (m/s)   
   ------    ----------   ----------------  --------------  ----------   ----------   ----------
    172.5       87.63            0.00            0.00         87.63         0.00         0.00
    158.8       86.62            0.00            0.00         86.62         0.00         0.00
    145.0       85.52            0.00            0.00         85.52         0.00         0.00
    131.2       84.34            0.00            0.00         84.34         0.00         0.00
    117.5       83.04            0.00            0.00         83.04         0.00         0.00
    103.8       81.61            0.00            0.00         81.61         0.00         0.00
     90.0       80.00            0.00            0.00         80.00         0.00         0.00
     76.2       78.16            0.00            0.00         78.16         0.00         0.00
     62.5       76.02            0.00            0.00         76.02         0.00         0.00
     48.8       73.42            0.00            0.00         73.42         0.00         0.00
     35.0       70.09            0.00            0.00         70.09         0.00         0.00
     21.2       65.36            0.00            0.00         65.36         0.00         0.00
      7.5       56.49            0.00            0.00         56.49         0.00         0.00


Harvested Random Seeds after Generation of the Random Numbers:

    705062557 Harvested seed # 1
    839551995 Harvested seed # 2


Hub-Height Simulated Turbulence Statistical Summary:

   Type of Wind        Min (m/s)   Mean (m/s)    Max (m/s)  Sigma (m/s)       TI (%)
   ----------------    ---------   ----------    ---------  -----------       ------
   Longitudinal (u)        48.12        80.00       112.83        8.473       10.592
   Lateral (v)            -30.34        -0.00        29.39        6.854        8.568
   Vertical (w)           -17.74        -0.00        17.44        4.108        5.135
   U component             48.12        80.00       112.83        8.473       10.592
   V component            -30.34        -0.00        29.39        6.854        8.568
   W component            -17.74        -0.00        17.44        4.108        5.135
   Horizontal (U&V)        48.21        80.30       113.06        8.450       10.524
   Total                   48.21        80.40       113.07        8.441       10.499

                       Min Reynolds     Mean Reynolds    Max Reynolds    Correlation
   Product             Stress (m/s)^2   Stress (m/s)^2   Stress (m/s)^2  Coefficient
   ----------------    --------------   --------------   --------------  -----------
   u'w'                   -321.884             0.018           344.781         0.001
   u'v'                   -486.512            -0.501           577.642        -0.009
   v'w'                   -261.296             0.020           254.077         0.001


   Friction Velocity (Ustar)  =      0.134 m/s
   Maximum Instantaneous TKE  =    588.979 (m/s)^2
   Maximum Instantaneous CTKE =    299.029 (m/s)^2


Grid Point Variance Summary:

   Y-coord  -82.50  -68.75  -55.00  -41.25  -27.50  -13.75    0.00   13.75   27.50   41.25   55.00   68.75   82.50

   Height   Standard deviation at grid points for the u component:
   172.50    8.401   8.395   8.471   8.605   8.694   8.606   8.601   8.379   8.470   8.545   8.618   8.765   8.623
   158.75    8.403   8.234   8.284   8.427   8.522   8.539   8.449   8.320   8.378   8.579   8.715   8.779   8.657
   145.00    8.408   8.303   8.299   8.329   8.326   8.512   8.372   8.295   8.437   8.553   8.704   8.777   8.732
   131.25    8.355   8.373   8.280   8.212   8.345   8.443   8.442   8.437   8.534   8.660   8.838   8.833   8.723
   117.50    8.334   8.275   8.286   8.218   8.372   8.368   8.518   8.493   8.738   8.867   8.836   8.861   8.785
   103.75    8.381   8.226   8.357   8.292   8.350   8.356   8.513   8.551   8.635   8.748   8.712   8.648   8.682
    90.00    8.474   8.430   8.374   8.267   8.259   8.376   8.473   8.466   8.556   8.690   8.824   8.711   8.649
    76.25    8.469   8.419   8.416   8.412   8.446   8.552   8.619   8.487   8.580   8.694   8.837   8.687   8.717
    62.50    8.628   8.592   8.442   8.628   8.708   8.674   8.723   8.624   8.699   8.675   8.640   8.825   8.843
    48.75    8.558   8.551   8.558   8.749   8.721   8.794   8.655   8.626   8.646   8.724   8.694   8.711   8.722
    35.00    8.595   8.597   8.678   8.813   8.829   8.723   8.691   8.735   8.804   8.801   8.705   8.758   8.631
    21.25    8.773   8.726   8.755   8.810   8.866   8.830   8.742   8.659   8.744   8.819   8.823   8.760   8.627
     7.50    8.680   8.727   8.735   8.863   8.887   8.841   8.867   8.882   8.787   8.730   8.815   8.679   8.717

   Height   Standard deviation at grid points for the v component:
   172.50    6.854   6.854   6.854   6.854   6.854   6.854   6.854   6.854   6.854   6.854   6.854   6.854   6.854
   158.75    6.854   6.854   6.854   6.854   6.854   6.854   6.854   6.854   6.854   6.854   6.854   6.854   6.854
   145.00    6.854   6.854   6.854   6.854   6.854   6.854   6.854   6.854   6.854   6.854   6.854   6.854   6.854
   131.25    6.854   6.854   6.854   6.854   6.854   6.854   6.854   6.854   6.854   6.854   6.854   6.854   6.854
   117.50    6.854   6.854   6.854   6.854   6.854   6.854   6.854   6.854   6.854   6.854   6.854   6.854   6.854
   103.75    6.854   6.854   6.854   6.854   6.854   6.854   6.854   6.854   6.854   6.854   6.854   6.854   6.854
    90.00    6.854   6.854   6.854   6.854   6.854   6.854   6.854   6.854   6.854   6.854   6.854   6.854   6.854
    76.25    6.854   6.854   6.854   6.854   6.854   6.854   6.854   6.854   6.854   6.854   6.854   6.854   6.854
    62.50    6.854   6.854   6.854   6.854   6.854   6.854   6.854   6.854   6.854   6.854   6.854   6.854   6.854
    48.75    6.854   6.854   6.854   6.854   6.854   6.854   6.854   6.854   6.854   6.854   6.854   6.854   6.854
    35.00    6.854   6.854   6.854   6.854   6.854   6.854   6.854   6.854   6.854   6.854   6.854   6.854   6.854
    21.25    6.854   6.854   6.854   6.854   6.854   6.854   6.854   6.854   6.854   6.854   6.854   6.854   6.854
     7.50    6.854   6.854   6.854   6.854   6.854   6.854   6.854   6.854   6.854   6.854   6.854   6.854   6.854

   Height   Standard deviation at grid points for the w component:
   172.50    4.108   4.108   4.108   4.108   4.108   4.108   4.108   4.108   4.108   4.108   4.108   4.108   4.108
   158.75    4.108   4.108   4.108   4.108   4.108   4.108   4.108   4.108   4.108   4.108   4.108   4.108   4.108
   145.00    4.108   4.108   4.108   4.108   4.108   4.108   4.108   4.108   4.108   4.108   4.108   4.108   4.108
   131.25    4.108   4.108   4.108   4.108   4.108   4.108   4.108   4.108   4.108   4.108   4.108   4.108   4.108
   117.50    4.108   4.108   4.108   4.108   4.108   4.108   4.108   4.108   4.108   4.108   4.108   4.108   4.108
   103.75    4.108   4.108   4.108   4.108   4.108   4.108   4.108   4.108   4.108   4.108   4.108   4.108   4.108
    90.00    4.108   4.108   4.108   4.108   4.108   4.108   4.108   4.108   4.108   4.108   4.108   4.108   4.108
    76.25    4.108   4.108   4.108   4.108   4.108   4.108   4.108   4.108   4.108   4.108   4.108   4.108   4.108
    62.50    4.108   4.108   4.108   4.108   4.108   4.108   4.108   4.108   4.108   4.108   4.108   4.108   4.108
    48.75    4.108   4.108   4.108   4.108   4.108   4.108   4.108   4.108   4.108   4.108   4.108   4.108   4.108
    35.00    4.108   4.108   4.108   4.108   4.108   4.108   4.108   4.108   4.108   4.108   4.108   4.108   4.108
    21.25    4.108   4.108   4.108   4.108   4.108   4.108   4.108   4.108   4.108   4.108   4.108   4.108   4.108
     7.50    4.108   4.108   4.108   4.108   4.108   4.108   4.108   4.108   4.108   4.108   4.108   4.108   4.108

   Mean standard deviation across all grid points:
      u component:    8.593 m/s
      v component:    6.854 m/s
      w component:    4.108 m/s


U-component (X) statistics from the interpolated hub point:

   Mean =  80.0000 m/s
   TI   =  10.5916 %


Processing complete.  15.844 CPU seconds used.
