
This summary file was generated by TurbSim (v2.00.07a-bjj, 14-Jun-2016) on 23-Mar-2020 at 10:06:10.


Runtime Options:

        21  Random seed #1
        22  Random seed #2
         F  Output binary HH turbulence parameters?
         F  Output formatted turbulence parameters?
         F  Output AeroDyn HH files?
         T  Output AeroDyn FF files?
         F  Output BLADED FF files?
         F  Output tower data?
         F  Output formatted FF files?
         F  Output coherent turbulence time step file?
         T  Clockwise rotation when looking downwind?
 0 -  NONE  IEC turbulence models scaled to exact specified standard deviation


Turbine/Model Specifications:

        13  Vertical grid-point matrix dimension
        13  Horizontal grid-point matrix dimension
     0.050  Time step [seconds]
  3630.000  Analysis time [seconds]
  3630.000  Usable output time [seconds]
    90.000  Hub height [m]
   165.000  Grid height [m]
   165.000  Grid width [m]
     0.000  Vertical flow angle [degrees]
     0.000  Horizontal flow angle [degrees]


Meteorological Boundary Conditions:

    IECKAI  IEC Kaimal spectral model
         3  IEC standard: IEC 61400-3 Ed. 1: 2006
    11.000  Percent turbulence intensity, IEC 61400-3 Ed. 1: 2006
       NTM  IEC Normal Turbulence Model
       N/A  IEC Extreme Turbulence Model (ETM) "c" parameter [m/s]
       IEC  Wind profile type
    90.000  Reference height [m]
    50.000  Reference wind speed [m/s]
       N/A  Jet height [m]
     0.140  Power law exponent
     0.030  Surface roughness length [m]


Non-IEC Meteorological Boundary Conditions:

       N/A  Site latitude [degrees]
       N/A  Gradient Richardson number
       N/A  Friction or shear velocity [m/s]
       N/A  Mixing layer depth [m]
       N/A  Mean hub u'w' Reynolds stress
       N/A  Mean hub u'v' Reynolds stress
       N/A  Mean hub v'w' Reynolds stress


Spatial Coherence Models:

       IEC  u-component coherence model
      NONE  v-component coherence model
      NONE  w-component coherence model
(   12.000, 0.353E-03)  u-component coherence parameters
                   N/A  v-component coherence parameters
                   N/A  w-component coherence parameters
       N/A  Coherence exponent


You have requested that the following file(s) be generated:

   2_50.bts (AeroDyn/TurbSim full-field wind file)


Turbulence Simulation Scaling Parameter Summary:

   Turbulence model used                            =  IEC Kaimal
   Turbulence characteristic                        =  User-specified
   IEC standard                                     =  IEC 61400-3 Ed. 1: 2006
   Mean wind speed at hub height                    =   50.000 m/s
   Characteristic value of standard deviation       =    5.500 m/s
   Turbulence scale                                 =   42.000 m
   u-component integral scale                       =  340.200 m
   Coherency scale                                  =  340.200 m
   Characteristic value of hub turbulence intensity =   11.000%
   Gradient Richardson number                       =    0.000

   Wind profile type                                =  Power law on rotor disk, logarithmic elsewhere
   Power law exponent                               =    0.140
   Mean shear across rotor disk                     =    0.118 (m/s)/m
   Assumed rotor diameter                           =  165.000 m
   Surface roughness length                         =    0.030 m

   Nyquist frequency of turbulent wind field        =   10.000 Hz

   Number of time steps in the FFT                  =    72600
   Number of time steps output                      =    72600
   Number of points simulated                       =      169


Mean Flow Angles:

   Vertical   =   0.0 degrees
   Horizontal =   0.0 degrees

Mean Wind Speed Profile:

   Height    Wind Speed   Horizontal Angle  Vertical Angle  U-comp (X)   V-comp (Y)   W-comp (Z)
     (m)        (m/s)         (degrees)       (degrees)       (m/s)        (m/s)        (m/s)   
   ------    ----------   ----------------  --------------  ----------   ----------   ----------
    172.5       54.77            0.00            0.00         54.77         0.00         0.00
    158.8       54.13            0.00            0.00         54.13         0.00         0.00
    145.0       53.45            0.00            0.00         53.45         0.00         0.00
    131.2       52.71            0.00            0.00         52.71         0.00         0.00
    117.5       51.90            0.00            0.00         51.90         0.00         0.00
    103.8       51.01            0.00            0.00         51.01         0.00         0.00
     90.0       50.00            0.00            0.00         50.00         0.00         0.00
     76.2       48.85            0.00            0.00         48.85         0.00         0.00
     62.5       47.51            0.00            0.00         47.51         0.00         0.00
     48.8       45.89            0.00            0.00         45.89         0.00         0.00
     35.0       43.81            0.00            0.00         43.81         0.00         0.00
     21.2       40.85            0.00            0.00         40.85         0.00         0.00
      7.5       35.31            0.00            0.00         35.31         0.00         0.00


Harvested Random Seeds after Generation of the Random Numbers:

   1447454309 Harvested seed # 1
    711409709 Harvested seed # 2


Hub-Height Simulated Turbulence Statistical Summary:

   Type of Wind        Min (m/s)   Mean (m/s)    Max (m/s)  Sigma (m/s)       TI (%)
   ----------------    ---------   ----------    ---------  -----------       ------
   Longitudinal (u)        26.25        50.00        71.82        5.494       10.988
   Lateral (v)            -17.31         0.00        18.05        4.314        8.627
   Vertical (w)           -11.39        -0.00        11.99        2.616        5.232
   U component             26.25        50.00        71.82        5.494       10.988
   V component            -17.31         0.00        18.05        4.314        8.627
   W component            -11.39        -0.00        11.99        2.616        5.232
   Horizontal (U&V)        26.40        50.19        71.82        5.484       10.927
   Total                   26.42        50.26        71.84        5.478       10.900

                       Min Reynolds     Mean Reynolds    Max Reynolds    Correlation
   Product             Stress (m/s)^2   Stress (m/s)^2   Stress (m/s)^2  Coefficient
   ----------------    --------------   --------------   --------------  -----------
   u'w'                   -112.128             0.376           141.156         0.026
   u'v'                   -185.264             0.441           199.242         0.019
   v'w'                    -99.776            -0.171           110.462        -0.015


   Friction Velocity (Ustar)  =      0.613 m/s
   Maximum Instantaneous TKE  =    286.232 (m/s)^2
   Maximum Instantaneous CTKE =    103.125 (m/s)^2


Grid Point Variance Summary:

   Y-coord  -82.50  -68.75  -55.00  -41.25  -27.50  -13.75    0.00   13.75   27.50   41.25   55.00   68.75   82.50

   Height   Standard deviation at grid points for the u component:
   172.50    5.600   5.524   5.520   5.449   5.390   5.254   5.282   5.194   5.243   5.225   5.322   5.438   5.375
   158.75    5.630   5.530   5.502   5.465   5.438   5.412   5.296   5.083   5.132   5.269   5.355   5.329   5.424
   145.00    5.636   5.496   5.429   5.416   5.380   5.357   5.319   5.217   5.234   5.279   5.309   5.413   5.435
   131.25    5.591   5.551   5.473   5.520   5.432   5.359   5.319   5.273   5.232   5.303   5.340   5.412   5.428
   117.50    5.576   5.614   5.621   5.550   5.487   5.482   5.406   5.466   5.335   5.350   5.367   5.410   5.530
   103.75    5.625   5.579   5.537   5.549   5.513   5.499   5.503   5.396   5.445   5.457   5.420   5.487   5.510
    90.00    5.577   5.675   5.565   5.578   5.534   5.555   5.494   5.450   5.469   5.555   5.549   5.549   5.446
    76.25    5.628   5.675   5.605   5.619   5.500   5.459   5.464   5.457   5.477   5.517   5.558   5.537   5.531
    62.50    5.553   5.567   5.659   5.582   5.546   5.491   5.432   5.485   5.399   5.470   5.543   5.581   5.486
    48.75    5.539   5.601   5.566   5.568   5.518   5.419   5.327   5.375   5.355   5.375   5.513   5.476   5.411
    35.00    5.490   5.512   5.514   5.626   5.597   5.450   5.356   5.400   5.347   5.382   5.461   5.306   5.322
    21.25    5.463   5.364   5.488   5.570   5.536   5.420   5.287   5.279   5.282   5.379   5.394   5.272   5.348
     7.50    5.440   5.424   5.514   5.613   5.414   5.326   5.310   5.331   5.287   5.317   5.354   5.352   5.464

   Height   Standard deviation at grid points for the v component:
   172.50    4.314   4.314   4.314   4.314   4.314   4.314   4.314   4.314   4.314   4.314   4.314   4.314   4.314
   158.75    4.314   4.314   4.314   4.314   4.314   4.314   4.314   4.314   4.314   4.314   4.314   4.314   4.314
   145.00    4.314   4.314   4.314   4.314   4.314   4.314   4.314   4.314   4.314   4.314   4.314   4.314   4.314
   131.25    4.314   4.314   4.314   4.314   4.314   4.314   4.314   4.314   4.314   4.314   4.314   4.314   4.314
   117.50    4.314   4.314   4.314   4.314   4.314   4.314   4.314   4.314   4.314   4.314   4.314   4.314   4.314
   103.75    4.314   4.314   4.314   4.314   4.314   4.314   4.314   4.314   4.314   4.314   4.314   4.314   4.314
    90.00    4.314   4.314   4.314   4.314   4.314   4.314   4.314   4.314   4.314   4.314   4.314   4.314   4.314
    76.25    4.314   4.314   4.314   4.314   4.314   4.314   4.314   4.314   4.314   4.314   4.314   4.314   4.314
    62.50    4.314   4.314   4.314   4.314   4.314   4.314   4.314   4.314   4.314   4.314   4.314   4.314   4.314
    48.75    4.314   4.314   4.314   4.314   4.314   4.314   4.314   4.314   4.314   4.314   4.314   4.314   4.314
    35.00    4.314   4.314   4.314   4.314   4.314   4.314   4.314   4.314   4.314   4.314   4.314   4.314   4.314
    21.25    4.314   4.314   4.314   4.314   4.314   4.314   4.314   4.314   4.314   4.314   4.314   4.314   4.314
     7.50    4.314   4.314   4.314   4.314   4.314   4.314   4.314   4.314   4.314   4.314   4.314   4.314   4.314

   Height   Standard deviation at grid points for the w component:
   172.50    2.616   2.616   2.616   2.616   2.616   2.616   2.616   2.616   2.616   2.616   2.616   2.616   2.616
   158.75    2.616   2.616   2.616   2.616   2.616   2.616   2.616   2.616   2.616   2.616   2.616   2.616   2.616
   145.00    2.616   2.616   2.616   2.616   2.616   2.616   2.616   2.616   2.616   2.616   2.616   2.616   2.616
   131.25    2.616   2.616   2.616   2.616   2.616   2.616   2.616   2.616   2.616   2.616   2.616   2.616   2.616
   117.50    2.616   2.616   2.616   2.616   2.616   2.616   2.616   2.616   2.616   2.616   2.616   2.616   2.616
   103.75    2.616   2.616   2.616   2.616   2.616   2.616   2.616   2.616   2.616   2.616   2.616   2.616   2.616
    90.00    2.616   2.616   2.616   2.616   2.616   2.616   2.616   2.616   2.616   2.616   2.616   2.616   2.616
    76.25    2.616   2.616   2.616   2.616   2.616   2.616   2.616   2.616   2.616   2.616   2.616   2.616   2.616
    62.50    2.616   2.616   2.616   2.616   2.616   2.616   2.616   2.616   2.616   2.616   2.616   2.616   2.616
    48.75    2.616   2.616   2.616   2.616   2.616   2.616   2.616   2.616   2.616   2.616   2.616   2.616   2.616
    35.00    2.616   2.616   2.616   2.616   2.616   2.616   2.616   2.616   2.616   2.616   2.616   2.616   2.616
    21.25    2.616   2.616   2.616   2.616   2.616   2.616   2.616   2.616   2.616   2.616   2.616   2.616   2.616
     7.50    2.616   2.616   2.616   2.616   2.616   2.616   2.616   2.616   2.616   2.616   2.616   2.616   2.616

   Mean standard deviation across all grid points:
      u component:    5.446 m/s
      v component:    4.314 m/s
      w component:    2.616 m/s


U-component (X) statistics from the interpolated hub point:

   Mean =  50.0000 m/s
   TI   =  10.9882 %


Processing complete.  17.094 CPU seconds used.
