
This summary file was generated by TurbSim (v2.00.07a-bjj, 14-Jun-2016) on 23-Mar-2020 at 10:36:39.


Runtime Options:

        61  Random seed #1
        62  Random seed #2
         F  Output binary HH turbulence parameters?
         F  Output formatted turbulence parameters?
         F  Output AeroDyn HH files?
         T  Output AeroDyn FF files?
         F  Output BLADED FF files?
         F  Output tower data?
         F  Output formatted FF files?
         F  Output coherent turbulence time step file?
         T  Clockwise rotation when looking downwind?
 0 -  NONE  IEC turbulence models scaled to exact specified standard deviation


Turbine/Model Specifications:

        13  Vertical grid-point matrix dimension
        13  Horizontal grid-point matrix dimension
     0.050  Time step [seconds]
  3630.000  Analysis time [seconds]
  3630.000  Usable output time [seconds]
    90.000  Hub height [m]
   165.000  Grid height [m]
   165.000  Grid width [m]
     0.000  Vertical flow angle [degrees]
     0.000  Horizontal flow angle [degrees]


Meteorological Boundary Conditions:

    IECKAI  IEC Kaimal spectral model
         3  IEC standard: IEC 61400-3 Ed. 1: 2006
    11.000  Percent turbulence intensity, IEC 61400-3 Ed. 1: 2006
       NTM  IEC Normal Turbulence Model
       N/A  IEC Extreme Turbulence Model (ETM) "c" parameter [m/s]
       IEC  Wind profile type
    90.000  Reference height [m]
    26.000  Reference wind speed [m/s]
       N/A  Jet height [m]
     0.140  Power law exponent
     0.030  Surface roughness length [m]


Non-IEC Meteorological Boundary Conditions:

       N/A  Site latitude [degrees]
       N/A  Gradient Richardson number
       N/A  Friction or shear velocity [m/s]
       N/A  Mixing layer depth [m]
       N/A  Mean hub u'w' Reynolds stress
       N/A  Mean hub u'v' Reynolds stress
       N/A  Mean hub v'w' Reynolds stress


Spatial Coherence Models:

       IEC  u-component coherence model
      NONE  v-component coherence model
      NONE  w-component coherence model
(   12.000, 0.353E-03)  u-component coherence parameters
                   N/A  v-component coherence parameters
                   N/A  w-component coherence parameters
       N/A  Coherence exponent


You have requested that the following file(s) be generated:

   6_26.bts (AeroDyn/TurbSim full-field wind file)


Turbulence Simulation Scaling Parameter Summary:

   Turbulence model used                            =  IEC Kaimal
   Turbulence characteristic                        =  User-specified
   IEC standard                                     =  IEC 61400-3 Ed. 1: 2006
   Mean wind speed at hub height                    =   26.000 m/s
   Characteristic value of standard deviation       =    2.860 m/s
   Turbulence scale                                 =   42.000 m
   u-component integral scale                       =  340.200 m
   Coherency scale                                  =  340.200 m
   Characteristic value of hub turbulence intensity =   11.000%
   Gradient Richardson number                       =    0.000

   Wind profile type                                =  Power law on rotor disk, logarithmic elsewhere
   Power law exponent                               =    0.140
   Mean shear across rotor disk                     =    0.061 (m/s)/m
   Assumed rotor diameter                           =  165.000 m
   Surface roughness length                         =    0.030 m

   Nyquist frequency of turbulent wind field        =   10.000 Hz

   Number of time steps in the FFT                  =    72600
   Number of time steps output                      =    72600
   Number of points simulated                       =      169


Mean Flow Angles:

   Vertical   =   0.0 degrees
   Horizontal =   0.0 degrees

Mean Wind Speed Profile:

   Height    Wind Speed   Horizontal Angle  Vertical Angle  U-comp (X)   V-comp (Y)   W-comp (Z)
     (m)        (m/s)         (degrees)       (degrees)       (m/s)        (m/s)        (m/s)   
   ------    ----------   ----------------  --------------  ----------   ----------   ----------
    172.5       28.48            0.00            0.00         28.48         0.00         0.00
    158.8       28.15            0.00            0.00         28.15         0.00         0.00
    145.0       27.80            0.00            0.00         27.80         0.00         0.00
    131.2       27.41            0.00            0.00         27.41         0.00         0.00
    117.5       26.99            0.00            0.00         26.99         0.00         0.00
    103.8       26.52            0.00            0.00         26.52         0.00         0.00
     90.0       26.00            0.00            0.00         26.00         0.00         0.00
     76.2       25.40            0.00            0.00         25.40         0.00         0.00
     62.5       24.71            0.00            0.00         24.71         0.00         0.00
     48.8       23.86            0.00            0.00         23.86         0.00         0.00
     35.0       22.78            0.00            0.00         22.78         0.00         0.00
     21.2       21.24            0.00            0.00         21.24         0.00         0.00
      7.5       18.36            0.00            0.00         18.36         0.00         0.00


Harvested Random Seeds after Generation of the Random Numbers:

    625370864 Harvested seed # 1
   1223978853 Harvested seed # 2


Hub-Height Simulated Turbulence Statistical Summary:

   Type of Wind        Min (m/s)   Mean (m/s)    Max (m/s)  Sigma (m/s)       TI (%)
   ----------------    ---------   ----------    ---------  -----------       ------
   Longitudinal (u)        15.66        26.00        37.25        2.862       11.008
   Lateral (v)             -8.99         0.00        11.15        2.257        8.681
   Vertical (w)            -5.28        -0.00         5.83        1.385        5.325
   U component             15.66        26.00        37.25        2.862       11.008
   V component             -8.99         0.00        11.15        2.257        8.681
   W component             -5.28        -0.00         5.83        1.385        5.325
   Horizontal (U&V)        15.66        26.10        37.27        2.853       10.933
   Total                   15.67        26.14        37.28        2.850       10.904

                       Min Reynolds     Mean Reynolds    Max Reynolds    Correlation
   Product             Stress (m/s)^2   Stress (m/s)^2   Stress (m/s)^2  Coefficient
   ----------------    --------------   --------------   --------------  -----------
   u'w'                    -46.052            -0.043            28.318        -0.011
   u'v'                    -44.283             0.403            53.056         0.062
   v'w'                    -42.168            -0.070            23.440        -0.022


   Friction Velocity (Ustar)  =      0.208 m/s
   Maximum Instantaneous TKE  =     66.698 (m/s)^2
   Maximum Instantaneous CTKE =     26.532 (m/s)^2


Grid Point Variance Summary:

   Y-coord  -82.50  -68.75  -55.00  -41.25  -27.50  -13.75    0.00   13.75   27.50   41.25   55.00   68.75   82.50

   Height   Standard deviation at grid points for the u component:
   172.50    2.875   2.894   2.943   3.014   2.999   2.974   3.008   3.018   3.012   3.100   3.161   3.056   2.947
   158.75    2.880   2.895   2.991   3.029   2.933   2.958   2.948   2.932   2.957   3.058   3.108   3.045   3.035
   145.00    2.897   2.935   2.996   2.976   3.028   2.952   2.942   2.945   2.928   3.054   3.045   2.971   2.960
   131.25    2.995   3.020   2.981   2.899   2.950   2.962   2.963   2.888   2.881   2.877   2.915   2.909   2.953
   117.50    2.954   2.986   2.910   2.943   2.900   2.943   2.884   2.849   2.931   2.929   2.948   2.942   3.015
   103.75    2.920   2.942   2.896   2.834   2.898   2.878   2.842   2.882   2.921   2.985   2.914   2.916   2.947
    90.00    2.847   2.869   2.829   2.774   2.842   2.822   2.862   2.898   2.928   2.932   2.945   2.879   2.909
    76.25    2.845   2.814   2.758   2.761   2.683   2.772   2.842   2.849   2.874   2.846   2.910   2.842   2.854
    62.50    2.854   2.753   2.683   2.643   2.680   2.718   2.849   2.879   2.913   2.844   2.822   2.805   2.838
    48.75    2.816   2.683   2.666   2.678   2.698   2.766   2.839   2.862   2.860   2.827   2.860   2.770   2.788
    35.00    2.778   2.765   2.674   2.670   2.696   2.754   2.760   2.727   2.811   2.854   2.871   2.819   2.812
    21.25    2.805   2.771   2.705   2.670   2.665   2.716   2.734   2.767   2.792   2.813   2.920   2.846   2.843
     7.50    2.833   2.814   2.686   2.704   2.742   2.699   2.723   2.774   2.805   2.861   2.882   2.890   2.840

   Height   Standard deviation at grid points for the v component:
   172.50    2.257   2.257   2.257   2.257   2.257   2.257   2.257   2.257   2.257   2.257   2.257   2.257   2.257
   158.75    2.257   2.257   2.257   2.257   2.257   2.257   2.257   2.257   2.257   2.257   2.257   2.257   2.257
   145.00    2.257   2.257   2.257   2.257   2.257   2.257   2.257   2.257   2.257   2.257   2.257   2.257   2.257
   131.25    2.257   2.257   2.257   2.257   2.257   2.257   2.257   2.257   2.257   2.257   2.257   2.257   2.257
   117.50    2.257   2.257   2.257   2.257   2.257   2.257   2.257   2.257   2.257   2.257   2.257   2.257   2.257
   103.75    2.257   2.257   2.257   2.257   2.257   2.257   2.257   2.257   2.257   2.257   2.257   2.257   2.257
    90.00    2.257   2.257   2.257   2.257   2.257   2.257   2.257   2.257   2.257   2.257   2.257   2.257   2.257
    76.25    2.257   2.257   2.257   2.257   2.257   2.257   2.257   2.257   2.257   2.257   2.257   2.257   2.257
    62.50    2.257   2.257   2.257   2.257   2.257   2.257   2.257   2.257   2.257   2.257   2.257   2.257   2.257
    48.75    2.257   2.257   2.257   2.257   2.257   2.257   2.257   2.257   2.257   2.257   2.257   2.257   2.257
    35.00    2.257   2.257   2.257   2.257   2.257   2.257   2.257   2.257   2.257   2.257   2.257   2.257   2.257
    21.25    2.257   2.257   2.257   2.257   2.257   2.257   2.257   2.257   2.257   2.257   2.257   2.257   2.257
     7.50    2.257   2.257   2.257   2.257   2.257   2.257   2.257   2.257   2.257   2.257   2.257   2.257   2.257

   Height   Standard deviation at grid points for the w component:
   172.50    1.385   1.385   1.385   1.385   1.385   1.385   1.385   1.385   1.385   1.385   1.385   1.385   1.385
   158.75    1.385   1.385   1.385   1.385   1.385   1.385   1.385   1.385   1.385   1.385   1.385   1.385   1.385
   145.00    1.385   1.385   1.385   1.385   1.385   1.385   1.385   1.385   1.385   1.385   1.385   1.385   1.385
   131.25    1.385   1.385   1.385   1.385   1.385   1.385   1.385   1.385   1.385   1.385   1.385   1.385   1.385
   117.50    1.385   1.385   1.385   1.385   1.385   1.385   1.385   1.385   1.385   1.385   1.385   1.385   1.385
   103.75    1.385   1.385   1.385   1.385   1.385   1.385   1.385   1.385   1.385   1.385   1.385   1.385   1.385
    90.00    1.385   1.385   1.385   1.385   1.385   1.385   1.385   1.385   1.385   1.385   1.385   1.385   1.385
    76.25    1.385   1.385   1.385   1.385   1.385   1.385   1.385   1.385   1.385   1.385   1.385   1.385   1.385
    62.50    1.385   1.385   1.385   1.385   1.385   1.385   1.385   1.385   1.385   1.385   1.385   1.385   1.385
    48.75    1.385   1.385   1.385   1.385   1.385   1.385   1.385   1.385   1.385   1.385   1.385   1.385   1.385
    35.00    1.385   1.385   1.385   1.385   1.385   1.385   1.385   1.385   1.385   1.385   1.385   1.385   1.385
    21.25    1.385   1.385   1.385   1.385   1.385   1.385   1.385   1.385   1.385   1.385   1.385   1.385   1.385
     7.50    1.385   1.385   1.385   1.385   1.385   1.385   1.385   1.385   1.385   1.385   1.385   1.385   1.385

   Mean standard deviation across all grid points:
      u component:    2.871 m/s
      v component:    2.257 m/s
      w component:    1.385 m/s


U-component (X) statistics from the interpolated hub point:

   Mean =  26.0000 m/s
   TI   =  11.0077 %


Processing complete.  17.062 CPU seconds used.
