
This summary file was generated by TurbSim (v2.00.07a-bjj, 14-Jun-2016) on 23-Mar-2020 at 10:44:50.


Runtime Options:

        61  Random seed #1
        62  Random seed #2
         F  Output binary HH turbulence parameters?
         F  Output formatted turbulence parameters?
         F  Output AeroDyn HH files?
         T  Output AeroDyn FF files?
         F  Output BLADED FF files?
         F  Output tower data?
         F  Output formatted FF files?
         F  Output coherent turbulence time step file?
         T  Clockwise rotation when looking downwind?
 0 -  NONE  IEC turbulence models scaled to exact specified standard deviation


Turbine/Model Specifications:

        13  Vertical grid-point matrix dimension
        13  Horizontal grid-point matrix dimension
     0.050  Time step [seconds]
  3630.000  Analysis time [seconds]
  3630.000  Usable output time [seconds]
    90.000  Hub height [m]
   165.000  Grid height [m]
   165.000  Grid width [m]
     0.000  Vertical flow angle [degrees]
     0.000  Horizontal flow angle [degrees]


Meteorological Boundary Conditions:

    IECKAI  IEC Kaimal spectral model
         3  IEC standard: IEC 61400-3 Ed. 1: 2006
    11.000  Percent turbulence intensity, IEC 61400-3 Ed. 1: 2006
       NTM  IEC Normal Turbulence Model
       N/A  IEC Extreme Turbulence Model (ETM) "c" parameter [m/s]
       IEC  Wind profile type
    90.000  Reference height [m]
    65.000  Reference wind speed [m/s]
       N/A  Jet height [m]
     0.140  Power law exponent
     0.030  Surface roughness length [m]


Non-IEC Meteorological Boundary Conditions:

       N/A  Site latitude [degrees]
       N/A  Gradient Richardson number
       N/A  Friction or shear velocity [m/s]
       N/A  Mixing layer depth [m]
       N/A  Mean hub u'w' Reynolds stress
       N/A  Mean hub u'v' Reynolds stress
       N/A  Mean hub v'w' Reynolds stress


Spatial Coherence Models:

       IEC  u-component coherence model
      NONE  v-component coherence model
      NONE  w-component coherence model
(   12.000, 0.353E-03)  u-component coherence parameters
                   N/A  v-component coherence parameters
                   N/A  w-component coherence parameters
       N/A  Coherence exponent


You have requested that the following file(s) be generated:

   6_65.bts (AeroDyn/TurbSim full-field wind file)


Turbulence Simulation Scaling Parameter Summary:

   Turbulence model used                            =  IEC Kaimal
   Turbulence characteristic                        =  User-specified
   IEC standard                                     =  IEC 61400-3 Ed. 1: 2006
   Mean wind speed at hub height                    =   65.000 m/s
   Characteristic value of standard deviation       =    7.150 m/s
   Turbulence scale                                 =   42.000 m
   u-component integral scale                       =  340.200 m
   Coherency scale                                  =  340.200 m
   Characteristic value of hub turbulence intensity =   11.000%
   Gradient Richardson number                       =    0.000

   Wind profile type                                =  Power law on rotor disk, logarithmic elsewhere
   Power law exponent                               =    0.140
   Mean shear across rotor disk                     =    0.153 (m/s)/m
   Assumed rotor diameter                           =  165.000 m
   Surface roughness length                         =    0.030 m

   Nyquist frequency of turbulent wind field        =   10.000 Hz

   Number of time steps in the FFT                  =    72600
   Number of time steps output                      =    72600
   Number of points simulated                       =      169


Mean Flow Angles:

   Vertical   =   0.0 degrees
   Horizontal =   0.0 degrees

Mean Wind Speed Profile:

   Height    Wind Speed   Horizontal Angle  Vertical Angle  U-comp (X)   V-comp (Y)   W-comp (Z)
     (m)        (m/s)         (degrees)       (degrees)       (m/s)        (m/s)        (m/s)   
   ------    ----------   ----------------  --------------  ----------   ----------   ----------
    172.5       71.20            0.00            0.00         71.20         0.00         0.00
    158.8       70.38            0.00            0.00         70.38         0.00         0.00
    145.0       69.49            0.00            0.00         69.49         0.00         0.00
    131.2       68.53            0.00            0.00         68.53         0.00         0.00
    117.5       67.47            0.00            0.00         67.47         0.00         0.00
    103.8       66.31            0.00            0.00         66.31         0.00         0.00
     90.0       65.00            0.00            0.00         65.00         0.00         0.00
     76.2       63.51            0.00            0.00         63.51         0.00         0.00
     62.5       61.77            0.00            0.00         61.77         0.00         0.00
     48.8       59.65            0.00            0.00         59.65         0.00         0.00
     35.0       56.95            0.00            0.00         56.95         0.00         0.00
     21.2       53.11            0.00            0.00         53.11         0.00         0.00
      7.5       45.90            0.00            0.00         45.90         0.00         0.00


Harvested Random Seeds after Generation of the Random Numbers:

    625370864 Harvested seed # 1
   1223978853 Harvested seed # 2


Hub-Height Simulated Turbulence Statistical Summary:

   Type of Wind        Min (m/s)   Mean (m/s)    Max (m/s)  Sigma (m/s)       TI (%)
   ----------------    ---------   ----------    ---------  -----------       ------
   Longitudinal (u)        38.50        65.00        93.46        7.181       11.048
   Lateral (v)            -22.54         0.00        26.90        5.588        8.597
   Vertical (w)           -13.51        -0.00        13.98        3.368        5.181
   U component             38.50        65.00        93.46        7.181       11.048
   V component            -22.54         0.00        26.90        5.588        8.597
   W component            -13.51        -0.00        13.98        3.368        5.181
   Horizontal (U&V)        38.58        65.24        93.59        7.159       10.973
   Total                   38.60        65.33        93.59        7.151       10.946

                       Min Reynolds     Mean Reynolds    Max Reynolds    Correlation
   Product             Stress (m/s)^2   Stress (m/s)^2   Stress (m/s)^2  Coefficient
   ----------------    --------------   --------------   --------------  -----------
   u'w'                   -299.656            -0.176           197.126        -0.007
   u'v'                   -293.599             1.753           380.870         0.044
   v'w'                   -238.779            -0.288           144.265        -0.015


   Friction Velocity (Ustar)  =      0.419 m/s
   Maximum Instantaneous TKE  =    435.445 (m/s)^2
   Maximum Instantaneous CTKE =    193.241 (m/s)^2


Grid Point Variance Summary:

   Y-coord  -82.50  -68.75  -55.00  -41.25  -27.50  -13.75    0.00   13.75   27.50   41.25   55.00   68.75   82.50

   Height   Standard deviation at grid points for the u component:
   172.50    7.165   7.203   7.253   7.320   7.305   7.257   7.308   7.300   7.299   7.453   7.499   7.345   7.160
   158.75    7.142   7.168   7.322   7.338   7.251   7.266   7.273   7.238   7.243   7.364   7.436   7.320   7.307
   145.00    7.188   7.237   7.307   7.289   7.363   7.287   7.265   7.264   7.196   7.372   7.343   7.238   7.201
   131.25    7.305   7.358   7.263   7.187   7.301   7.247   7.291   7.205   7.157   7.109   7.214   7.195   7.242
   117.50    7.213   7.272   7.135   7.205   7.171   7.257   7.153   7.116   7.210   7.181   7.237   7.250   7.362
   103.75    7.227   7.222   7.134   7.027   7.137   7.145   7.118   7.138   7.233   7.299   7.195   7.211   7.229
    90.00    7.095   7.137   7.065   6.961   7.054   7.068   7.181   7.185   7.221   7.216   7.228   7.151   7.221
    76.25    7.115   7.074   6.930   6.955   6.814   6.998   7.168   7.163   7.116   7.058   7.139   7.073   7.082
    62.50    7.150   6.950   6.845   6.768   6.818   6.896   7.108   7.138   7.114   6.985   6.997   7.002   7.069
    48.75    7.092   6.872   6.819   6.812   6.843   6.953   7.065   7.088   7.074   6.985   7.060   6.935   6.958
    35.00    7.038   6.975   6.845   6.771   6.785   6.900   6.951   6.876   6.976   7.089   7.093   7.032   6.970
    21.25    7.016   6.987   6.879   6.795   6.775   6.868   6.896   6.935   6.991   7.003   7.148   7.049   6.997
     7.50    7.062   7.052   6.872   6.916   6.941   6.845   6.891   6.931   7.011   7.066   7.093   7.100   7.024

   Height   Standard deviation at grid points for the v component:
   172.50    5.588   5.588   5.588   5.588   5.588   5.588   5.588   5.588   5.588   5.588   5.588   5.588   5.588
   158.75    5.588   5.588   5.588   5.588   5.588   5.588   5.588   5.588   5.588   5.588   5.588   5.588   5.588
   145.00    5.588   5.588   5.588   5.588   5.588   5.588   5.588   5.588   5.588   5.588   5.588   5.588   5.588
   131.25    5.588   5.588   5.588   5.588   5.588   5.588   5.588   5.588   5.588   5.588   5.588   5.588   5.588
   117.50    5.588   5.588   5.588   5.588   5.588   5.588   5.588   5.588   5.588   5.588   5.588   5.588   5.588
   103.75    5.588   5.588   5.588   5.588   5.588   5.588   5.588   5.588   5.588   5.588   5.588   5.588   5.588
    90.00    5.588   5.588   5.588   5.588   5.588   5.588   5.588   5.588   5.588   5.588   5.588   5.588   5.588
    76.25    5.588   5.588   5.588   5.588   5.588   5.588   5.588   5.588   5.588   5.588   5.588   5.588   5.588
    62.50    5.588   5.588   5.588   5.588   5.588   5.588   5.588   5.588   5.588   5.588   5.588   5.588   5.588
    48.75    5.588   5.588   5.588   5.588   5.588   5.588   5.588   5.588   5.588   5.588   5.588   5.588   5.588
    35.00    5.588   5.588   5.588   5.588   5.588   5.588   5.588   5.588   5.588   5.588   5.588   5.588   5.588
    21.25    5.588   5.588   5.588   5.588   5.588   5.588   5.588   5.588   5.588   5.588   5.588   5.588   5.588
     7.50    5.588   5.588   5.588   5.588   5.588   5.588   5.588   5.588   5.588   5.588   5.588   5.588   5.588

   Height   Standard deviation at grid points for the w component:
   172.50    3.368   3.368   3.368   3.368   3.368   3.368   3.368   3.368   3.368   3.368   3.368   3.368   3.368
   158.75    3.368   3.368   3.368   3.368   3.368   3.368   3.368   3.368   3.368   3.368   3.368   3.368   3.368
   145.00    3.368   3.368   3.368   3.368   3.368   3.368   3.368   3.368   3.368   3.368   3.368   3.368   3.368
   131.25    3.368   3.368   3.368   3.368   3.368   3.368   3.368   3.368   3.368   3.368   3.368   3.368   3.368
   117.50    3.368   3.368   3.368   3.368   3.368   3.368   3.368   3.368   3.368   3.368   3.368   3.368   3.368
   103.75    3.368   3.368   3.368   3.368   3.368   3.368   3.368   3.368   3.368   3.368   3.368   3.368   3.368
    90.00    3.368   3.368   3.368   3.368   3.368   3.368   3.368   3.368   3.368   3.368   3.368   3.368   3.368
    76.25    3.368   3.368   3.368   3.368   3.368   3.368   3.368   3.368   3.368   3.368   3.368   3.368   3.368
    62.50    3.368   3.368   3.368   3.368   3.368   3.368   3.368   3.368   3.368   3.368   3.368   3.368   3.368
    48.75    3.368   3.368   3.368   3.368   3.368   3.368   3.368   3.368   3.368   3.368   3.368   3.368   3.368
    35.00    3.368   3.368   3.368   3.368   3.368   3.368   3.368   3.368   3.368   3.368   3.368   3.368   3.368
    21.25    3.368   3.368   3.368   3.368   3.368   3.368   3.368   3.368   3.368   3.368   3.368   3.368   3.368
     7.50    3.368   3.368   3.368   3.368   3.368   3.368   3.368   3.368   3.368   3.368   3.368   3.368   3.368

   Mean standard deviation across all grid points:
      u component:    7.116 m/s
      v component:    5.588 m/s
      w component:    3.368 m/s


U-component (X) statistics from the interpolated hub point:

   Mean =  65.0000 m/s
   TI   =  11.0484 %


Processing complete.  16.844 CPU seconds used.
