
This summary file was generated by TurbSim (v2.00.07a-bjj, 14-Jun-2016) on 23-Mar-2020 at 10:47:17.


Runtime Options:

        61  Random seed #1
        62  Random seed #2
         F  Output binary HH turbulence parameters?
         F  Output formatted turbulence parameters?
         F  Output AeroDyn HH files?
         T  Output AeroDyn FF files?
         F  Output BLADED FF files?
         F  Output tower data?
         F  Output formatted FF files?
         F  Output coherent turbulence time step file?
         T  Clockwise rotation when looking downwind?
 0 -  NONE  IEC turbulence models scaled to exact specified standard deviation


Turbine/Model Specifications:

        13  Vertical grid-point matrix dimension
        13  Horizontal grid-point matrix dimension
     0.050  Time step [seconds]
  3630.000  Analysis time [seconds]
  3630.000  Usable output time [seconds]
    90.000  Hub height [m]
   165.000  Grid height [m]
   165.000  Grid width [m]
     0.000  Vertical flow angle [degrees]
     0.000  Horizontal flow angle [degrees]


Meteorological Boundary Conditions:

    IECKAI  IEC Kaimal spectral model
         3  IEC standard: IEC 61400-3 Ed. 1: 2006
    11.000  Percent turbulence intensity, IEC 61400-3 Ed. 1: 2006
       NTM  IEC Normal Turbulence Model
       N/A  IEC Extreme Turbulence Model (ETM) "c" parameter [m/s]
       IEC  Wind profile type
    90.000  Reference height [m]
    85.000  Reference wind speed [m/s]
       N/A  Jet height [m]
     0.140  Power law exponent
     0.030  Surface roughness length [m]


Non-IEC Meteorological Boundary Conditions:

       N/A  Site latitude [degrees]
       N/A  Gradient Richardson number
       N/A  Friction or shear velocity [m/s]
       N/A  Mixing layer depth [m]
       N/A  Mean hub u'w' Reynolds stress
       N/A  Mean hub u'v' Reynolds stress
       N/A  Mean hub v'w' Reynolds stress


Spatial Coherence Models:

       IEC  u-component coherence model
      NONE  v-component coherence model
      NONE  w-component coherence model
(   12.000, 0.353E-03)  u-component coherence parameters
                   N/A  v-component coherence parameters
                   N/A  w-component coherence parameters
       N/A  Coherence exponent


You have requested that the following file(s) be generated:

   6_85.bts (AeroDyn/TurbSim full-field wind file)


Turbulence Simulation Scaling Parameter Summary:

   Turbulence model used                            =  IEC Kaimal
   Turbulence characteristic                        =  User-specified
   IEC standard                                     =  IEC 61400-3 Ed. 1: 2006
   Mean wind speed at hub height                    =   85.000 m/s
   Characteristic value of standard deviation       =    9.350 m/s
   Turbulence scale                                 =   42.000 m
   u-component integral scale                       =  340.200 m
   Coherency scale                                  =  340.200 m
   Characteristic value of hub turbulence intensity =   11.000%
   Gradient Richardson number                       =    0.000

   Wind profile type                                =  Power law on rotor disk, logarithmic elsewhere
   Power law exponent                               =    0.140
   Mean shear across rotor disk                     =    0.200 (m/s)/m
   Assumed rotor diameter                           =  165.000 m
   Surface roughness length                         =    0.030 m

   Nyquist frequency of turbulent wind field        =   10.000 Hz

   Number of time steps in the FFT                  =    72600
   Number of time steps output                      =    72600
   Number of points simulated                       =      169


Mean Flow Angles:

   Vertical   =   0.0 degrees
   Horizontal =   0.0 degrees

Mean Wind Speed Profile:

   Height    Wind Speed   Horizontal Angle  Vertical Angle  U-comp (X)   V-comp (Y)   W-comp (Z)
     (m)        (m/s)         (degrees)       (degrees)       (m/s)        (m/s)        (m/s)   
   ------    ----------   ----------------  --------------  ----------   ----------   ----------
    172.5       93.11            0.00            0.00         93.11         0.00         0.00
    158.8       92.03            0.00            0.00         92.03         0.00         0.00
    145.0       90.87            0.00            0.00         90.87         0.00         0.00
    131.2       89.61            0.00            0.00         89.61         0.00         0.00
    117.5       88.23            0.00            0.00         88.23         0.00         0.00
    103.8       86.71            0.00            0.00         86.71         0.00         0.00
     90.0       85.00            0.00            0.00         85.00         0.00         0.00
     76.2       83.05            0.00            0.00         83.05         0.00         0.00
     62.5       80.77            0.00            0.00         80.77         0.00         0.00
     48.8       78.01            0.00            0.00         78.01         0.00         0.00
     35.0       74.47            0.00            0.00         74.47         0.00         0.00
     21.2       69.45            0.00            0.00         69.45         0.00         0.00
      7.5       60.03            0.00            0.00         60.03         0.00         0.00


Harvested Random Seeds after Generation of the Random Numbers:

    625370864 Harvested seed # 1
   1223978853 Harvested seed # 2


Hub-Height Simulated Turbulence Statistical Summary:

   Type of Wind        Min (m/s)   Mean (m/s)    Max (m/s)  Sigma (m/s)       TI (%)
   ----------------    ---------   ----------    ---------  -----------       ------
   Longitudinal (u)        48.67        85.00       122.80        9.358       11.009
   Lateral (v)            -29.17         0.00        34.43        7.275        8.559
   Vertical (w)           -17.57        -0.00        18.28        4.352        5.120
   U component             48.67        85.00       122.80        9.358       11.009
   V component            -29.17         0.00        34.43        7.275        8.559
   W component            -17.57        -0.00        18.28        4.352        5.120
   Horizontal (U&V)        48.73        85.31       122.95        9.329       10.935
   Total                   48.76        85.43       122.96        9.319       10.909

                       Min Reynolds     Mean Reynolds    Max Reynolds    Correlation
   Product             Stress (m/s)^2   Stress (m/s)^2   Stress (m/s)^2  Coefficient
   ----------------    --------------   --------------   --------------  -----------
   u'w'                   -503.301            -0.285           359.736        -0.007
   u'v'                   -504.523             2.656           660.478         0.039
   v'w'                   -388.998            -0.443           257.070        -0.014


   Friction Velocity (Ustar)  =      0.534 m/s
   Maximum Instantaneous TKE  =    756.459 (m/s)^2
   Maximum Instantaneous CTKE =    334.983 (m/s)^2


Grid Point Variance Summary:

   Y-coord  -82.50  -68.75  -55.00  -41.25  -27.50  -13.75    0.00   13.75   27.50   41.25   55.00   68.75   82.50

   Height   Standard deviation at grid points for the u component:
   172.50    9.335   9.381   9.415   9.480   9.467   9.404   9.468   9.449   9.453   9.633   9.662   9.512   9.296
   158.75    9.301   9.333   9.498   9.499   9.422   9.434   9.450   9.408   9.400   9.531   9.613   9.484   9.463
   145.00    9.360   9.408   9.489   9.458   9.538   9.467   9.447   9.444   9.346   9.547   9.520   9.415   9.365
   131.25    9.475   9.543   9.432   9.358   9.500   9.407   9.470   9.391   9.330   9.259   9.400   9.388   9.426
   117.50    9.377   9.438   9.288   9.370   9.346   9.437   9.317   9.288   9.382   9.343   9.413   9.441   9.560
   103.75    9.417   9.403   9.296   9.184   9.307   9.319   9.282   9.297   9.422   9.486   9.365   9.392   9.403
    90.00    9.267   9.318   9.241   9.118   9.209   9.228   9.358   9.353   9.389   9.381   9.395   9.323   9.414
    76.25    9.293   9.253   9.079   9.105   8.929   9.140   9.337   9.335   9.268   9.207   9.296   9.240   9.240
    62.50    9.337   9.100   8.983   8.893   8.941   9.023   9.263   9.286   9.245   9.107   9.134   9.149   9.224
    48.75    9.264   9.016   8.953   8.938   8.974   9.095   9.218   9.242   9.224   9.114   9.210   9.080   9.093
    35.00    9.203   9.119   8.984   8.878   8.890   9.023   9.100   9.013   9.113   9.252   9.259   9.190   9.099
    21.25    9.165   9.141   9.016   8.913   8.894   9.004   9.035   9.068   9.151   9.159   9.307   9.200   9.120
     7.50    9.218   9.209   9.024   9.078   9.099   8.978   9.037   9.072   9.172   9.226   9.246   9.250   9.164

   Height   Standard deviation at grid points for the v component:
   172.50    7.275   7.275   7.275   7.275   7.275   7.275   7.275   7.275   7.275   7.275   7.275   7.275   7.275
   158.75    7.275   7.275   7.275   7.275   7.275   7.275   7.275   7.275   7.275   7.275   7.275   7.275   7.275
   145.00    7.275   7.275   7.275   7.275   7.275   7.275   7.275   7.275   7.275   7.275   7.275   7.275   7.275
   131.25    7.275   7.275   7.275   7.275   7.275   7.275   7.275   7.275   7.275   7.275   7.275   7.275   7.275
   117.50    7.275   7.275   7.275   7.275   7.275   7.275   7.275   7.275   7.275   7.275   7.275   7.275   7.275
   103.75    7.275   7.275   7.275   7.275   7.275   7.275   7.275   7.275   7.275   7.275   7.275   7.275   7.275
    90.00    7.275   7.275   7.275   7.275   7.275   7.275   7.275   7.275   7.275   7.275   7.275   7.275   7.275
    76.25    7.275   7.275   7.275   7.275   7.275   7.275   7.275   7.275   7.275   7.275   7.275   7.275   7.275
    62.50    7.275   7.275   7.275   7.275   7.275   7.275   7.275   7.275   7.275   7.275   7.275   7.275   7.275
    48.75    7.275   7.275   7.275   7.275   7.275   7.275   7.275   7.275   7.275   7.275   7.275   7.275   7.275
    35.00    7.275   7.275   7.275   7.275   7.275   7.275   7.275   7.275   7.275   7.275   7.275   7.275   7.275
    21.25    7.275   7.275   7.275   7.275   7.275   7.275   7.275   7.275   7.275   7.275   7.275   7.275   7.275
     7.50    7.275   7.275   7.275   7.275   7.275   7.275   7.275   7.275   7.275   7.275   7.275   7.275   7.275

   Height   Standard deviation at grid points for the w component:
   172.50    4.352   4.352   4.352   4.352   4.352   4.352   4.352   4.352   4.352   4.352   4.352   4.352   4.352
   158.75    4.352   4.352   4.352   4.352   4.352   4.352   4.352   4.352   4.352   4.352   4.352   4.352   4.352
   145.00    4.352   4.352   4.352   4.352   4.352   4.352   4.352   4.352   4.352   4.352   4.352   4.352   4.352
   131.25    4.352   4.352   4.352   4.352   4.352   4.352   4.352   4.352   4.352   4.352   4.352   4.352   4.352
   117.50    4.352   4.352   4.352   4.352   4.352   4.352   4.352   4.352   4.352   4.352   4.352   4.352   4.352
   103.75    4.352   4.352   4.352   4.352   4.352   4.352   4.352   4.352   4.352   4.352   4.352   4.352   4.352
    90.00    4.352   4.352   4.352   4.352   4.352   4.352   4.352   4.352   4.352   4.352   4.352   4.352   4.352
    76.25    4.352   4.352   4.352   4.352   4.352   4.352   4.352   4.352   4.352   4.352   4.352   4.352   4.352
    62.50    4.352   4.352   4.352   4.352   4.352   4.352   4.352   4.352   4.352   4.352   4.352   4.352   4.352
    48.75    4.352   4.352   4.352   4.352   4.352   4.352   4.352   4.352   4.352   4.352   4.352   4.352   4.352
    35.00    4.352   4.352   4.352   4.352   4.352   4.352   4.352   4.352   4.352   4.352   4.352   4.352   4.352
    21.25    4.352   4.352   4.352   4.352   4.352   4.352   4.352   4.352   4.352   4.352   4.352   4.352   4.352
     7.50    4.352   4.352   4.352   4.352   4.352   4.352   4.352   4.352   4.352   4.352   4.352   4.352   4.352

   Mean standard deviation across all grid points:
      u component:    9.275 m/s
      v component:    7.275 m/s
      w component:    4.352 m/s


U-component (X) statistics from the interpolated hub point:

   Mean =  85.0000 m/s
   TI   =  11.0093 %


Processing complete.  15.938 CPU seconds used.
