
This summary file was generated by TurbSim (v2.00.07a-bjj, 14-Jun-2016) on 23-Mar-2020 at 10:17:57.


Runtime Options:

        31  Random seed #1
        32  Random seed #2
         F  Output binary HH turbulence parameters?
         F  Output formatted turbulence parameters?
         F  Output AeroDyn HH files?
         T  Output AeroDyn FF files?
         F  Output BLADED FF files?
         F  Output tower data?
         F  Output formatted FF files?
         F  Output coherent turbulence time step file?
         T  Clockwise rotation when looking downwind?
 0 -  NONE  IEC turbulence models scaled to exact specified standard deviation


Turbine/Model Specifications:

        13  Vertical grid-point matrix dimension
        13  Horizontal grid-point matrix dimension
     0.050  Time step [seconds]
  3630.000  Analysis time [seconds]
  3630.000  Usable output time [seconds]
    90.000  Hub height [m]
   165.000  Grid height [m]
   165.000  Grid width [m]
     0.000  Vertical flow angle [degrees]
     0.000  Horizontal flow angle [degrees]


Meteorological Boundary Conditions:

    IECKAI  IEC Kaimal spectral model
         3  IEC standard: IEC 61400-3 Ed. 1: 2006
    11.000  Percent turbulence intensity, IEC 61400-3 Ed. 1: 2006
       NTM  IEC Normal Turbulence Model
       N/A  IEC Extreme Turbulence Model (ETM) "c" parameter [m/s]
       IEC  Wind profile type
    90.000  Reference height [m]
    90.000  Reference wind speed [m/s]
       N/A  Jet height [m]
     0.140  Power law exponent
     0.030  Surface roughness length [m]


Non-IEC Meteorological Boundary Conditions:

       N/A  Site latitude [degrees]
       N/A  Gradient Richardson number
       N/A  Friction or shear velocity [m/s]
       N/A  Mixing layer depth [m]
       N/A  Mean hub u'w' Reynolds stress
       N/A  Mean hub u'v' Reynolds stress
       N/A  Mean hub v'w' Reynolds stress


Spatial Coherence Models:

       IEC  u-component coherence model
      NONE  v-component coherence model
      NONE  w-component coherence model
(   12.000, 0.353E-03)  u-component coherence parameters
                   N/A  v-component coherence parameters
                   N/A  w-component coherence parameters
       N/A  Coherence exponent


You have requested that the following file(s) be generated:

   3_90.bts (AeroDyn/TurbSim full-field wind file)


Turbulence Simulation Scaling Parameter Summary:

   Turbulence model used                            =  IEC Kaimal
   Turbulence characteristic                        =  User-specified
   IEC standard                                     =  IEC 61400-3 Ed. 1: 2006
   Mean wind speed at hub height                    =   90.000 m/s
   Characteristic value of standard deviation       =    9.900 m/s
   Turbulence scale                                 =   42.000 m
   u-component integral scale                       =  340.200 m
   Coherency scale                                  =  340.200 m
   Characteristic value of hub turbulence intensity =   11.000%
   Gradient Richardson number                       =    0.000

   Wind profile type                                =  Power law on rotor disk, logarithmic elsewhere
   Power law exponent                               =    0.140
   Mean shear across rotor disk                     =    0.212 (m/s)/m
   Assumed rotor diameter                           =  165.000 m
   Surface roughness length                         =    0.030 m

   Nyquist frequency of turbulent wind field        =   10.000 Hz

   Number of time steps in the FFT                  =    72600
   Number of time steps output                      =    72600
   Number of points simulated                       =      169


Mean Flow Angles:

   Vertical   =   0.0 degrees
   Horizontal =   0.0 degrees

Mean Wind Speed Profile:

   Height    Wind Speed   Horizontal Angle  Vertical Angle  U-comp (X)   V-comp (Y)   W-comp (Z)
     (m)        (m/s)         (degrees)       (degrees)       (m/s)        (m/s)        (m/s)   
   ------    ----------   ----------------  --------------  ----------   ----------   ----------
    172.5       98.58            0.00            0.00         98.58         0.00         0.00
    158.8       97.44            0.00            0.00         97.44         0.00         0.00
    145.0       96.21            0.00            0.00         96.21         0.00         0.00
    131.2       94.88            0.00            0.00         94.88         0.00         0.00
    117.5       93.42            0.00            0.00         93.42         0.00         0.00
    103.8       91.81            0.00            0.00         91.81         0.00         0.00
     90.0       90.00            0.00            0.00         90.00         0.00         0.00
     76.2       87.94            0.00            0.00         87.94         0.00         0.00
     62.5       85.52            0.00            0.00         85.52         0.00         0.00
     48.8       82.60            0.00            0.00         82.60         0.00         0.00
     35.0       78.85            0.00            0.00         78.85         0.00         0.00
     21.2       73.53            0.00            0.00         73.53         0.00         0.00
      7.5       63.56            0.00            0.00         63.56         0.00         0.00


Harvested Random Seeds after Generation of the Random Numbers:

    705062557 Harvested seed # 1
    839551995 Harvested seed # 2


Hub-Height Simulated Turbulence Statistical Summary:

   Type of Wind        Min (m/s)   Mean (m/s)    Max (m/s)  Sigma (m/s)       TI (%)
   ----------------    ---------   ----------    ---------  -----------       ------
   Longitudinal (u)        53.72        90.00       127.00        9.532       10.591
   Lateral (v)            -34.11        -0.00        33.12        7.694        8.549
   Vertical (w)           -19.77        -0.00        19.57        4.595        5.106
   U component             53.72        90.00       127.00        9.532       10.591
   V component            -34.11        -0.00        33.12        7.694        8.549
   W component            -19.77        -0.00        19.57        4.595        5.106
   Horizontal (U&V)        53.80        90.33       127.18        9.506       10.523
   Total                   53.80        90.45       127.19        9.496       10.499

                       Min Reynolds     Mean Reynolds    Max Reynolds    Correlation
   Product             Stress (m/s)^2   Stress (m/s)^2   Stress (m/s)^2  Coefficient
   ----------------    --------------   --------------   --------------  -----------
   u'w'                   -403.765            -0.002           433.129        -0.000
   u'v'                   -607.022            -0.545           730.595        -0.007
   v'w'                   -336.544             0.028           319.032         0.001


   Friction Velocity (Ustar)  =      0.039 m/s
   Maximum Instantaneous TKE  =    744.843 (m/s)^2
   Maximum Instantaneous CTKE =    377.814 (m/s)^2


Grid Point Variance Summary:

   Y-coord  -82.50  -68.75  -55.00  -41.25  -27.50  -13.75    0.00   13.75   27.50   41.25   55.00   68.75   82.50

   Height   Standard deviation at grid points for the u component:
   172.50    9.450   9.447   9.533   9.668   9.761   9.675   9.671   9.443   9.542   9.620   9.700   9.851   9.698
   158.75    9.459   9.281   9.335   9.482   9.581   9.604   9.524   9.381   9.449   9.665   9.801   9.865   9.732
   145.00    9.471   9.357   9.355   9.384   9.384   9.575   9.431   9.356   9.512   9.634   9.792   9.869   9.819
   131.25    9.412   9.432   9.330   9.252   9.398   9.507   9.507   9.502   9.609   9.738   9.930   9.922   9.807
   117.50    9.393   9.324   9.336   9.265   9.425   9.419   9.581   9.564   9.830   9.960   9.920   9.951   9.867
   103.75    9.443   9.278   9.416   9.338   9.394   9.399   9.573   9.618   9.712   9.826   9.791   9.727   9.761
    90.00    9.536   9.489   9.428   9.318   9.307   9.430   9.532   9.531   9.627   9.765   9.906   9.796   9.733
    76.25    9.528   9.481   9.473   9.479   9.509   9.622   9.696   9.554   9.652   9.771   9.930   9.764   9.808
    62.50    9.701   9.667   9.503   9.704   9.788   9.751   9.797   9.695   9.777   9.762   9.719   9.917   9.934
    48.75    9.629   9.619   9.625   9.828   9.796   9.885   9.727   9.700   9.719   9.808   9.777   9.795   9.807
    35.00    9.675   9.670   9.752   9.891   9.914   9.807   9.769   9.818   9.899   9.885   9.781   9.852   9.708
    21.25    9.861   9.806   9.834   9.888   9.952   9.916   9.825   9.737   9.832   9.912   9.909   9.850   9.707
     7.50    9.756   9.804   9.812   9.947   9.971   9.927   9.964   9.980   9.879   9.815   9.907   9.767   9.806

   Height   Standard deviation at grid points for the v component:
   172.50    7.694   7.694   7.694   7.694   7.694   7.694   7.694   7.694   7.694   7.694   7.694   7.694   7.694
   158.75    7.694   7.694   7.694   7.694   7.694   7.694   7.694   7.694   7.694   7.694   7.694   7.694   7.694
   145.00    7.694   7.694   7.694   7.694   7.694   7.694   7.694   7.694   7.694   7.694   7.694   7.694   7.694
   131.25    7.694   7.694   7.694   7.694   7.694   7.694   7.694   7.694   7.694   7.694   7.694   7.694   7.694
   117.50    7.694   7.694   7.694   7.694   7.694   7.694   7.694   7.694   7.694   7.694   7.694   7.694   7.694
   103.75    7.694   7.694   7.694   7.694   7.694   7.694   7.694   7.694   7.694   7.694   7.694   7.694   7.694
    90.00    7.694   7.694   7.694   7.694   7.694   7.694   7.694   7.694   7.694   7.694   7.694   7.694   7.694
    76.25    7.694   7.694   7.694   7.694   7.694   7.694   7.694   7.694   7.694   7.694   7.694   7.694   7.694
    62.50    7.694   7.694   7.694   7.694   7.694   7.694   7.694   7.694   7.694   7.694   7.694   7.694   7.694
    48.75    7.694   7.694   7.694   7.694   7.694   7.694   7.694   7.694   7.694   7.694   7.694   7.694   7.694
    35.00    7.694   7.694   7.694   7.694   7.694   7.694   7.694   7.694   7.694   7.694   7.694   7.694   7.694
    21.25    7.694   7.694   7.694   7.694   7.694   7.694   7.694   7.694   7.694   7.694   7.694   7.694   7.694
     7.50    7.694   7.694   7.694   7.694   7.694   7.694   7.694   7.694   7.694   7.694   7.694   7.694   7.694

   Height   Standard deviation at grid points for the w component:
   172.50    4.595   4.595   4.595   4.595   4.595   4.595   4.595   4.595   4.595   4.595   4.595   4.595   4.595
   158.75    4.595   4.595   4.595   4.595   4.595   4.595   4.595   4.595   4.595   4.595   4.595   4.595   4.595
   145.00    4.595   4.595   4.595   4.595   4.595   4.595   4.595   4.595   4.595   4.595   4.595   4.595   4.595
   131.25    4.595   4.595   4.595   4.595   4.595   4.595   4.595   4.595   4.595   4.595   4.595   4.595   4.595
   117.50    4.595   4.595   4.595   4.595   4.595   4.595   4.595   4.595   4.595   4.595   4.595   4.595   4.595
   103.75    4.595   4.595   4.595   4.595   4.595   4.595   4.595   4.595   4.595   4.595   4.595   4.595   4.595
    90.00    4.595   4.595   4.595   4.595   4.595   4.595   4.595   4.595   4.595   4.595   4.595   4.595   4.595
    76.25    4.595   4.595   4.595   4.595   4.595   4.595   4.595   4.595   4.595   4.595   4.595   4.595   4.595
    62.50    4.595   4.595   4.595   4.595   4.595   4.595   4.595   4.595   4.595   4.595   4.595   4.595   4.595
    48.75    4.595   4.595   4.595   4.595   4.595   4.595   4.595   4.595   4.595   4.595   4.595   4.595   4.595
    35.00    4.595   4.595   4.595   4.595   4.595   4.595   4.595   4.595   4.595   4.595   4.595   4.595   4.595
    21.25    4.595   4.595   4.595   4.595   4.595   4.595   4.595   4.595   4.595   4.595   4.595   4.595   4.595
     7.50    4.595   4.595   4.595   4.595   4.595   4.595   4.595   4.595   4.595   4.595   4.595   4.595   4.595

   Mean standard deviation across all grid points:
      u component:    9.666 m/s
      v component:    7.694 m/s
      w component:    4.595 m/s


U-component (X) statistics from the interpolated hub point:

   Mean =  90.0000 m/s
   TI   =  10.5912 %


Processing complete.  15.844 CPU seconds used.
