
This summary file was generated by TurbSim (v2.00.07a-bjj, 14-Jun-2016) on 23-Mar-2020 at 10:43:36.


Runtime Options:

        61  Random seed #1
        62  Random seed #2
         F  Output binary HH turbulence parameters?
         F  Output formatted turbulence parameters?
         F  Output AeroDyn HH files?
         T  Output AeroDyn FF files?
         F  Output BLADED FF files?
         F  Output tower data?
         F  Output formatted FF files?
         F  Output coherent turbulence time step file?
         T  Clockwise rotation when looking downwind?
 0 -  NONE  IEC turbulence models scaled to exact specified standard deviation


Turbine/Model Specifications:

        13  Vertical grid-point matrix dimension
        13  Horizontal grid-point matrix dimension
     0.050  Time step [seconds]
  3630.000  Analysis time [seconds]
  3630.000  Usable output time [seconds]
    90.000  Hub height [m]
   165.000  Grid height [m]
   165.000  Grid width [m]
     0.000  Vertical flow angle [degrees]
     0.000  Horizontal flow angle [degrees]


Meteorological Boundary Conditions:

    IECKAI  IEC Kaimal spectral model
         3  IEC standard: IEC 61400-3 Ed. 1: 2006
    11.000  Percent turbulence intensity, IEC 61400-3 Ed. 1: 2006
       NTM  IEC Normal Turbulence Model
       N/A  IEC Extreme Turbulence Model (ETM) "c" parameter [m/s]
       IEC  Wind profile type
    90.000  Reference height [m]
    50.000  Reference wind speed [m/s]
       N/A  Jet height [m]
     0.140  Power law exponent
     0.030  Surface roughness length [m]


Non-IEC Meteorological Boundary Conditions:

       N/A  Site latitude [degrees]
       N/A  Gradient Richardson number
       N/A  Friction or shear velocity [m/s]
       N/A  Mixing layer depth [m]
       N/A  Mean hub u'w' Reynolds stress
       N/A  Mean hub u'v' Reynolds stress
       N/A  Mean hub v'w' Reynolds stress


Spatial Coherence Models:

       IEC  u-component coherence model
      NONE  v-component coherence model
      NONE  w-component coherence model
(   12.000, 0.353E-03)  u-component coherence parameters
                   N/A  v-component coherence parameters
                   N/A  w-component coherence parameters
       N/A  Coherence exponent


You have requested that the following file(s) be generated:

   6_50.bts (AeroDyn/TurbSim full-field wind file)


Turbulence Simulation Scaling Parameter Summary:

   Turbulence model used                            =  IEC Kaimal
   Turbulence characteristic                        =  User-specified
   IEC standard                                     =  IEC 61400-3 Ed. 1: 2006
   Mean wind speed at hub height                    =   50.000 m/s
   Characteristic value of standard deviation       =    5.500 m/s
   Turbulence scale                                 =   42.000 m
   u-component integral scale                       =  340.200 m
   Coherency scale                                  =  340.200 m
   Characteristic value of hub turbulence intensity =   11.000%
   Gradient Richardson number                       =    0.000

   Wind profile type                                =  Power law on rotor disk, logarithmic elsewhere
   Power law exponent                               =    0.140
   Mean shear across rotor disk                     =    0.118 (m/s)/m
   Assumed rotor diameter                           =  165.000 m
   Surface roughness length                         =    0.030 m

   Nyquist frequency of turbulent wind field        =   10.000 Hz

   Number of time steps in the FFT                  =    72600
   Number of time steps output                      =    72600
   Number of points simulated                       =      169


Mean Flow Angles:

   Vertical   =   0.0 degrees
   Horizontal =   0.0 degrees

Mean Wind Speed Profile:

   Height    Wind Speed   Horizontal Angle  Vertical Angle  U-comp (X)   V-comp (Y)   W-comp (Z)
     (m)        (m/s)         (degrees)       (degrees)       (m/s)        (m/s)        (m/s)   
   ------    ----------   ----------------  --------------  ----------   ----------   ----------
    172.5       54.77            0.00            0.00         54.77         0.00         0.00
    158.8       54.13            0.00            0.00         54.13         0.00         0.00
    145.0       53.45            0.00            0.00         53.45         0.00         0.00
    131.2       52.71            0.00            0.00         52.71         0.00         0.00
    117.5       51.90            0.00            0.00         51.90         0.00         0.00
    103.8       51.01            0.00            0.00         51.01         0.00         0.00
     90.0       50.00            0.00            0.00         50.00         0.00         0.00
     76.2       48.85            0.00            0.00         48.85         0.00         0.00
     62.5       47.51            0.00            0.00         47.51         0.00         0.00
     48.8       45.89            0.00            0.00         45.89         0.00         0.00
     35.0       43.81            0.00            0.00         43.81         0.00         0.00
     21.2       40.85            0.00            0.00         40.85         0.00         0.00
      7.5       35.31            0.00            0.00         35.31         0.00         0.00


Harvested Random Seeds after Generation of the Random Numbers:

    625370864 Harvested seed # 1
   1223978853 Harvested seed # 2


Hub-Height Simulated Turbulence Statistical Summary:

   Type of Wind        Min (m/s)   Mean (m/s)    Max (m/s)  Sigma (m/s)       TI (%)
   ----------------    ---------   ----------    ---------  -----------       ------
   Longitudinal (u)        29.90        50.00        71.92        5.533       11.065
   Lateral (v)            -17.43         0.00        21.03        4.314        8.627
   Vertical (w)           -10.39        -0.00        10.69        2.616        5.232
   U component             29.90        50.00        71.92        5.533       11.065
   V component            -17.43         0.00        21.03        4.314        8.627
   W component            -10.39        -0.00        10.69        2.616        5.232
   Horizontal (U&V)        29.93        50.19        72.00        5.515       10.989
   Total                   30.00        50.26        72.03        5.509       10.961

                       Min Reynolds     Mean Reynolds    Max Reynolds    Correlation
   Product             Stress (m/s)^2   Stress (m/s)^2   Stress (m/s)^2  Coefficient
   ----------------    --------------   --------------   --------------  -----------
   u'w'                   -178.232            -0.113           106.538        -0.008
   u'v'                   -167.589             1.162           216.305         0.049
   v'w'                   -146.879            -0.190            82.747        -0.017


   Friction Velocity (Ustar)  =      0.336 m/s
   Maximum Instantaneous TKE  =    258.155 (m/s)^2
   Maximum Instantaneous CTKE =    109.854 (m/s)^2


Grid Point Variance Summary:

   Y-coord  -82.50  -68.75  -55.00  -41.25  -27.50  -13.75    0.00   13.75   27.50   41.25   55.00   68.75   82.50

   Height   Standard deviation at grid points for the u component:
   172.50    5.529   5.560   5.616   5.685   5.670   5.630   5.675   5.675   5.669   5.801   5.857   5.711   5.551
   158.75    5.516   5.537   5.677   5.703   5.609   5.626   5.626   5.598   5.612   5.727   5.790   5.689   5.681
   145.00    5.552   5.598   5.664   5.650   5.717   5.637   5.617   5.618   5.571   5.726   5.702   5.603   5.576
   131.25    5.667   5.707   5.628   5.550   5.640   5.616   5.642   5.555   5.520   5.488   5.567   5.548   5.598
   117.50    5.585   5.638   5.518   5.575   5.535   5.609   5.521   5.481   5.574   5.554   5.595   5.599   5.701
   103.75    5.578   5.582   5.509   5.411   5.507   5.507   5.482   5.509   5.583   5.649   5.558   5.566   5.591
    90.00    5.463   5.499   5.432   5.345   5.434   5.438   5.533   5.547   5.582   5.580   5.592   5.515   5.568
    76.25    5.476   5.435   5.321   5.341   5.225   5.381   5.521   5.519   5.493   5.443   5.518   5.447   5.461
    62.50    5.502   5.334   5.241   5.175   5.225   5.295   5.482   5.516   5.509   5.395   5.394   5.390   5.449
    48.75    5.453   5.259   5.217   5.217   5.245   5.345   5.446   5.471   5.458   5.388   5.446   5.329   5.356
    35.00    5.406   5.361   5.239   5.192   5.208   5.307   5.339   5.276   5.375   5.464   5.469   5.412   5.373
    21.25    5.400   5.367   5.274   5.207   5.188   5.268   5.293   5.333   5.373   5.390   5.526   5.435   5.404
     7.50    5.440   5.427   5.259   5.293   5.323   5.246   5.283   5.329   5.391   5.449   5.477   5.485   5.417

   Height   Standard deviation at grid points for the v component:
   172.50    4.314   4.314   4.314   4.314   4.314   4.314   4.314   4.314   4.314   4.314   4.314   4.314   4.314
   158.75    4.314   4.314   4.314   4.314   4.314   4.314   4.314   4.314   4.314   4.314   4.314   4.314   4.314
   145.00    4.314   4.314   4.314   4.314   4.314   4.314   4.314   4.314   4.314   4.314   4.314   4.314   4.314
   131.25    4.314   4.314   4.314   4.314   4.314   4.314   4.314   4.314   4.314   4.314   4.314   4.314   4.314
   117.50    4.314   4.314   4.314   4.314   4.314   4.314   4.314   4.314   4.314   4.314   4.314   4.314   4.314
   103.75    4.314   4.314   4.314   4.314   4.314   4.314   4.314   4.314   4.314   4.314   4.314   4.314   4.314
    90.00    4.314   4.314   4.314   4.314   4.314   4.314   4.314   4.314   4.314   4.314   4.314   4.314   4.314
    76.25    4.314   4.314   4.314   4.314   4.314   4.314   4.314   4.314   4.314   4.314   4.314   4.314   4.314
    62.50    4.314   4.314   4.314   4.314   4.314   4.314   4.314   4.314   4.314   4.314   4.314   4.314   4.314
    48.75    4.314   4.314   4.314   4.314   4.314   4.314   4.314   4.314   4.314   4.314   4.314   4.314   4.314
    35.00    4.314   4.314   4.314   4.314   4.314   4.314   4.314   4.314   4.314   4.314   4.314   4.314   4.314
    21.25    4.314   4.314   4.314   4.314   4.314   4.314   4.314   4.314   4.314   4.314   4.314   4.314   4.314
     7.50    4.314   4.314   4.314   4.314   4.314   4.314   4.314   4.314   4.314   4.314   4.314   4.314   4.314

   Height   Standard deviation at grid points for the w component:
   172.50    2.616   2.616   2.616   2.616   2.616   2.616   2.616   2.616   2.616   2.616   2.616   2.616   2.616
   158.75    2.616   2.616   2.616   2.616   2.616   2.616   2.616   2.616   2.616   2.616   2.616   2.616   2.616
   145.00    2.616   2.616   2.616   2.616   2.616   2.616   2.616   2.616   2.616   2.616   2.616   2.616   2.616
   131.25    2.616   2.616   2.616   2.616   2.616   2.616   2.616   2.616   2.616   2.616   2.616   2.616   2.616
   117.50    2.616   2.616   2.616   2.616   2.616   2.616   2.616   2.616   2.616   2.616   2.616   2.616   2.616
   103.75    2.616   2.616   2.616   2.616   2.616   2.616   2.616   2.616   2.616   2.616   2.616   2.616   2.616
    90.00    2.616   2.616   2.616   2.616   2.616   2.616   2.616   2.616   2.616   2.616   2.616   2.616   2.616
    76.25    2.616   2.616   2.616   2.616   2.616   2.616   2.616   2.616   2.616   2.616   2.616   2.616   2.616
    62.50    2.616   2.616   2.616   2.616   2.616   2.616   2.616   2.616   2.616   2.616   2.616   2.616   2.616
    48.75    2.616   2.616   2.616   2.616   2.616   2.616   2.616   2.616   2.616   2.616   2.616   2.616   2.616
    35.00    2.616   2.616   2.616   2.616   2.616   2.616   2.616   2.616   2.616   2.616   2.616   2.616   2.616
    21.25    2.616   2.616   2.616   2.616   2.616   2.616   2.616   2.616   2.616   2.616   2.616   2.616   2.616
     7.50    2.616   2.616   2.616   2.616   2.616   2.616   2.616   2.616   2.616   2.616   2.616   2.616   2.616

   Mean standard deviation across all grid points:
      u component:    5.490 m/s
      v component:    4.314 m/s
      w component:    2.616 m/s


U-component (X) statistics from the interpolated hub point:

   Mean =  50.0000 m/s
   TI   =  11.0652 %


Processing complete.  16.25 CPU seconds used.
