
This summary file was generated by TurbSim (v2.00.07a-bjj, 14-Jun-2016) on 22-Mar-2021 at 13:41:11.


Runtime Options:

 469261861  Random seed #1
1682964440  Random seed #2
         F  Output binary HH turbulence parameters?
         F  Output formatted turbulence parameters?
         F  Output AeroDyn HH files?
         T  Output AeroDyn FF files?
         F  Output BLADED FF files?
         F  Output tower data?
         F  Output formatted FF files?
         F  Output coherent turbulence time step file?
         T  Clockwise rotation when looking downwind?
 0 -  NONE  IEC turbulence models scaled to exact specified standard deviation


Turbine/Model Specifications:

        13  Vertical grid-point matrix dimension
        13  Horizontal grid-point matrix dimension
     0.050  Time step [seconds]
  3630.000  Analysis time [seconds]
  3630.000  Usable output time [seconds]
    90.000  Hub height [m]
   165.000  Grid height [m]
   165.000  Grid width [m]
     0.000  Vertical flow angle [degrees]
     0.000  Horizontal flow angle [degrees]


Meteorological Boundary Conditions:

    IECKAI  IEC Kaimal spectral model
         3  IEC standard: IEC 61400-3 Ed. 1: 2006
         B  IEC turbulence characteristic
       NTM  IEC Normal Turbulence Model
       N/A  IEC Extreme Turbulence Model (ETM) "c" parameter [m/s]
       PL   Wind profile type
    90.000  Reference height [m]
    21.000  Reference wind speed [m/s]
       N/A  Jet height [m]
     0.140  Power law exponent
     0.030  Surface roughness length [m]


Non-IEC Meteorological Boundary Conditions:

       N/A  Site latitude [degrees]
       N/A  Gradient Richardson number
       N/A  Friction or shear velocity [m/s]
       N/A  Mixing layer depth [m]
       N/A  Mean hub u'w' Reynolds stress
       N/A  Mean hub u'v' Reynolds stress
       N/A  Mean hub v'w' Reynolds stress


Spatial Coherence Models:

       IEC  u-component coherence model
      NONE  v-component coherence model
      NONE  w-component coherence model
(   12.000, 0.353E-03)  u-component coherence parameters
                   N/A  v-component coherence parameters
                   N/A  w-component coherence parameters
       N/A  Coherence exponent


You have requested that the following file(s) be generated:

   21_15_15-4.bts (AeroDyn/TurbSim full-field wind file)


Turbulence Simulation Scaling Parameter Summary:

   Turbulence model used                            =  IEC Kaimal
   Turbulence characteristic                        =  B
   IEC turbulence type                              =  Normal Turbulence Model
   IEC standard                                     =  IEC 61400-3 Ed. 1: 2006
   Mean wind speed at hub height                    =   21.000 m/s
   Expected value of turbulence intensity at 15 m/s =   14.000%
   Characteristic value of standard deviation       =    2.989 m/s
   Turbulence scale                                 =   42.000 m
   u-component integral scale                       =  340.200 m
   Coherency scale                                  =  340.200 m
   Characteristic value of hub turbulence intensity =   14.233%
   Gradient Richardson number                       =    0.000

   Wind profile type                                =  Power law
   Power law exponent                               =    0.140
   Mean shear across rotor disk                     =    0.050 (m/s)/m
   Assumed rotor diameter                           =  165.000 m
   Surface roughness length                         =    0.030 m

   Nyquist frequency of turbulent wind field        =   10.000 Hz

   Number of time steps in the FFT                  =    72600
   Number of time steps output                      =    72600
   Number of points simulated                       =      169


Mean Flow Angles:

   Vertical   =   0.0 degrees
   Horizontal =   0.0 degrees

Mean Wind Speed Profile:

   Height    Wind Speed   Horizontal Angle  Vertical Angle  U-comp (X)   V-comp (Y)   W-comp (Z)
     (m)        (m/s)         (degrees)       (degrees)       (m/s)        (m/s)        (m/s)   
   ------    ----------   ----------------  --------------  ----------   ----------   ----------
    172.5       23.00            0.00            0.00         23.00         0.00         0.00
    158.8       22.74            0.00            0.00         22.74         0.00         0.00
    145.0       22.45            0.00            0.00         22.45         0.00         0.00
    131.2       22.14            0.00            0.00         22.14         0.00         0.00
    117.5       21.80            0.00            0.00         21.80         0.00         0.00
    103.8       21.42            0.00            0.00         21.42         0.00         0.00
     90.0       21.00            0.00            0.00         21.00         0.00         0.00
     76.2       20.52            0.00            0.00         20.52         0.00         0.00
     62.5       19.95            0.00            0.00         19.95         0.00         0.00
     48.8       19.27            0.00            0.00         19.27         0.00         0.00
     35.0       18.40            0.00            0.00         18.40         0.00         0.00
     21.2       17.16            0.00            0.00         17.16         0.00         0.00
      7.5       14.83            0.00            0.00         14.83         0.00         0.00


Harvested Random Seeds after Generation of the Random Numbers:

   1723327205 Harvested seed # 1
   1626229985 Harvested seed # 2


Hub-Height Simulated Turbulence Statistical Summary:

   Type of Wind        Min (m/s)   Mean (m/s)    Max (m/s)  Sigma (m/s)       TI (%)
   ----------------    ---------   ----------    ---------  -----------       ------
   Longitudinal (u)        10.02        21.00        32.36        3.042       14.484
   Lateral (v)             -9.46         0.00         8.54        2.362       11.248
   Vertical (w)            -5.65         0.00         6.13        1.453        6.920
   U component             10.02        21.00        32.36        3.042       14.484
   V component             -9.46         0.00         8.54        2.362       11.248
   W component             -5.65         0.00         6.13        1.453        6.920
   Horizontal (U&V)        10.19        21.14        32.44        3.024       14.306
   Total                   10.30        21.19        32.44        3.018       14.245

                       Min Reynolds     Mean Reynolds    Max Reynolds    Correlation
   Product             Stress (m/s)^2   Stress (m/s)^2   Stress (m/s)^2  Coefficient
   ----------------    --------------   --------------   --------------  -----------
   u'w'                    -38.609            -0.078            38.397        -0.018
   u'v'                    -51.392             0.042            57.676         0.006
   v'w'                    -26.995            -0.051            29.116        -0.015


   Friction Velocity (Ustar)  =      0.279 m/s
   Maximum Instantaneous TKE  =     71.063 (m/s)^2
   Maximum Instantaneous CTKE =     30.649 (m/s)^2


Grid Point Variance Summary:

   Y-coord  -82.50  -68.75  -55.00  -41.25  -27.50  -13.75    0.00   13.75   27.50   41.25   55.00   68.75   82.50

   Height   Standard deviation at grid points for the u component:
   172.50    2.942   3.039   3.060   2.973   2.881   2.894   2.855   2.919   2.958   3.038   3.019   3.091   3.021
   158.75    2.919   3.039   2.976   2.969   2.911   2.887   2.905   3.021   2.987   3.051   3.008   3.035   3.058
   145.00    3.025   3.042   2.930   2.995   2.917   2.896   2.960   3.115   2.988   3.012   3.097   3.133   3.143
   131.25    2.967   3.008   2.992   3.020   3.056   3.107   3.019   3.138   3.041   3.011   3.064   3.053   3.051
   117.50    2.912   2.915   2.951   3.021   3.011   3.012   3.016   3.083   3.023   3.027   3.028   3.030   3.067
   103.75    2.962   2.965   2.921   2.958   3.004   2.992   3.094   3.089   3.078   3.035   2.931   2.953   3.028
    90.00    2.946   2.966   2.936   2.941   2.917   2.927   3.042   3.026   3.035   3.044   2.954   2.997   2.978
    76.25    3.043   3.026   3.006   3.010   3.003   2.997   2.976   2.972   2.979   2.956   2.917   2.953   3.039
    62.50    3.003   3.025   3.032   3.025   3.012   2.944   2.920   2.870   2.830   2.858   2.914   3.000   3.023
    48.75    3.103   3.035   3.048   2.926   2.975   2.885   2.878   2.836   2.886   2.792   2.899   2.924   3.050
    35.00    3.075   3.017   2.908   2.856   2.968   2.895   2.924   2.893   2.935   2.888   2.832   2.909   3.029
    21.25    3.039   2.998   2.881   2.873   2.903   2.858   2.855   2.892   2.880   2.887   2.830   2.976   2.962
     7.50    2.960   2.979   2.979   2.958   2.970   2.856   2.917   2.888   2.888   2.931   2.895   2.894   2.930

   Height   Standard deviation at grid points for the v component:
   172.50    2.362   2.362   2.362   2.362   2.362   2.362   2.362   2.362   2.362   2.362   2.362   2.362   2.362
   158.75    2.362   2.362   2.362   2.362   2.362   2.362   2.362   2.362   2.362   2.362   2.362   2.362   2.362
   145.00    2.362   2.362   2.362   2.362   2.362   2.362   2.362   2.362   2.362   2.362   2.362   2.362   2.362
   131.25    2.362   2.362   2.362   2.362   2.362   2.362   2.362   2.362   2.362   2.362   2.362   2.362   2.362
   117.50    2.362   2.362   2.362   2.362   2.362   2.362   2.362   2.362   2.362   2.362   2.362   2.362   2.362
   103.75    2.362   2.362   2.362   2.362   2.362   2.362   2.362   2.362   2.362   2.362   2.362   2.362   2.362
    90.00    2.362   2.362   2.362   2.362   2.362   2.362   2.362   2.362   2.362   2.362   2.362   2.362   2.362
    76.25    2.362   2.362   2.362   2.362   2.362   2.362   2.362   2.362   2.362   2.362   2.362   2.362   2.362
    62.50    2.362   2.362   2.362   2.362   2.362   2.362   2.362   2.362   2.362   2.362   2.362   2.362   2.362
    48.75    2.362   2.362   2.362   2.362   2.362   2.362   2.362   2.362   2.362   2.362   2.362   2.362   2.362
    35.00    2.362   2.362   2.362   2.362   2.362   2.362   2.362   2.362   2.362   2.362   2.362   2.362   2.362
    21.25    2.362   2.362   2.362   2.362   2.362   2.362   2.362   2.362   2.362   2.362   2.362   2.362   2.362
     7.50    2.362   2.362   2.362   2.362   2.362   2.362   2.362   2.362   2.362   2.362   2.362   2.362   2.362

   Height   Standard deviation at grid points for the w component:
   172.50    1.453   1.453   1.453   1.453   1.453   1.453   1.453   1.453   1.453   1.453   1.453   1.453   1.453
   158.75    1.453   1.453   1.453   1.453   1.453   1.453   1.453   1.453   1.453   1.453   1.453   1.453   1.453
   145.00    1.453   1.453   1.453   1.453   1.453   1.453   1.453   1.453   1.453   1.453   1.453   1.453   1.453
   131.25    1.453   1.453   1.453   1.453   1.453   1.453   1.453   1.453   1.453   1.453   1.453   1.453   1.453
   117.50    1.453   1.453   1.453   1.453   1.453   1.453   1.453   1.453   1.453   1.453   1.453   1.453   1.453
   103.75    1.453   1.453   1.453   1.453   1.453   1.453   1.453   1.453   1.453   1.453   1.453   1.453   1.453
    90.00    1.453   1.453   1.453   1.453   1.453   1.453   1.453   1.453   1.453   1.453   1.453   1.453   1.453
    76.25    1.453   1.453   1.453   1.453   1.453   1.453   1.453   1.453   1.453   1.453   1.453   1.453   1.453
    62.50    1.453   1.453   1.453   1.453   1.453   1.453   1.453   1.453   1.453   1.453   1.453   1.453   1.453
    48.75    1.453   1.453   1.453   1.453   1.453   1.453   1.453   1.453   1.453   1.453   1.453   1.453   1.453
    35.00    1.453   1.453   1.453   1.453   1.453   1.453   1.453   1.453   1.453   1.453   1.453   1.453   1.453
    21.25    1.453   1.453   1.453   1.453   1.453   1.453   1.453   1.453   1.453   1.453   1.453   1.453   1.453
     7.50    1.453   1.453   1.453   1.453   1.453   1.453   1.453   1.453   1.453   1.453   1.453   1.453   1.453

   Mean standard deviation across all grid points:
      u component:    2.974 m/s
      v component:    2.362 m/s
      w component:    1.453 m/s


U-component (X) statistics from the interpolated hub point:

   Mean =  21.0000 m/s
   TI   =  14.4838 %


Processing complete.  20.031 CPU seconds used.
