
This summary file was generated by TurbSim (v2.00.07a-bjj, 14-Jun-2016) on 22-Mar-2021 at 13:41:36.


Runtime Options:

 107383258  Random seed #1
 133631286  Random seed #2
         F  Output binary HH turbulence parameters?
         F  Output formatted turbulence parameters?
         F  Output AeroDyn HH files?
         T  Output AeroDyn FF files?
         F  Output BLADED FF files?
         F  Output tower data?
         F  Output formatted FF files?
         F  Output coherent turbulence time step file?
         T  Clockwise rotation when looking downwind?
 0 -  NONE  IEC turbulence models scaled to exact specified standard deviation


Turbine/Model Specifications:

        13  Vertical grid-point matrix dimension
        13  Horizontal grid-point matrix dimension
     0.050  Time step [seconds]
  3630.000  Analysis time [seconds]
  3630.000  Usable output time [seconds]
    90.000  Hub height [m]
   165.000  Grid height [m]
   165.000  Grid width [m]
     0.000  Vertical flow angle [degrees]
     0.000  Horizontal flow angle [degrees]


Meteorological Boundary Conditions:

    IECKAI  IEC Kaimal spectral model
         3  IEC standard: IEC 61400-3 Ed. 1: 2006
         B  IEC turbulence characteristic
       NTM  IEC Normal Turbulence Model
       N/A  IEC Extreme Turbulence Model (ETM) "c" parameter [m/s]
       PL   Wind profile type
    90.000  Reference height [m]
    23.000  Reference wind speed [m/s]
       N/A  Jet height [m]
     0.140  Power law exponent
     0.030  Surface roughness length [m]


Non-IEC Meteorological Boundary Conditions:

       N/A  Site latitude [degrees]
       N/A  Gradient Richardson number
       N/A  Friction or shear velocity [m/s]
       N/A  Mixing layer depth [m]
       N/A  Mean hub u'w' Reynolds stress
       N/A  Mean hub u'v' Reynolds stress
       N/A  Mean hub v'w' Reynolds stress


Spatial Coherence Models:

       IEC  u-component coherence model
      NONE  v-component coherence model
      NONE  w-component coherence model
(   12.000, 0.353E-03)  u-component coherence parameters
                   N/A  v-component coherence parameters
                   N/A  w-component coherence parameters
       N/A  Coherence exponent


You have requested that the following file(s) be generated:

   23_15_15-4.bts (AeroDyn/TurbSim full-field wind file)


Turbulence Simulation Scaling Parameter Summary:

   Turbulence model used                            =  IEC Kaimal
   Turbulence characteristic                        =  B
   IEC turbulence type                              =  Normal Turbulence Model
   IEC standard                                     =  IEC 61400-3 Ed. 1: 2006
   Mean wind speed at hub height                    =   23.000 m/s
   Expected value of turbulence intensity at 15 m/s =   14.000%
   Characteristic value of standard deviation       =    3.199 m/s
   Turbulence scale                                 =   42.000 m
   u-component integral scale                       =  340.200 m
   Coherency scale                                  =  340.200 m
   Characteristic value of hub turbulence intensity =   13.909%
   Gradient Richardson number                       =    0.000

   Wind profile type                                =  Power law
   Power law exponent                               =    0.140
   Mean shear across rotor disk                     =    0.054 (m/s)/m
   Assumed rotor diameter                           =  165.000 m
   Surface roughness length                         =    0.030 m

   Nyquist frequency of turbulent wind field        =   10.000 Hz

   Number of time steps in the FFT                  =    72600
   Number of time steps output                      =    72600
   Number of points simulated                       =      169


Mean Flow Angles:

   Vertical   =   0.0 degrees
   Horizontal =   0.0 degrees

Mean Wind Speed Profile:

   Height    Wind Speed   Horizontal Angle  Vertical Angle  U-comp (X)   V-comp (Y)   W-comp (Z)
     (m)        (m/s)         (degrees)       (degrees)       (m/s)        (m/s)        (m/s)   
   ------    ----------   ----------------  --------------  ----------   ----------   ----------
    172.5       25.19            0.00            0.00         25.19         0.00         0.00
    158.8       24.90            0.00            0.00         24.90         0.00         0.00
    145.0       24.59            0.00            0.00         24.59         0.00         0.00
    131.2       24.25            0.00            0.00         24.25         0.00         0.00
    117.5       23.87            0.00            0.00         23.87         0.00         0.00
    103.8       23.46            0.00            0.00         23.46         0.00         0.00
     90.0       23.00            0.00            0.00         23.00         0.00         0.00
     76.2       22.47            0.00            0.00         22.47         0.00         0.00
     62.5       21.86            0.00            0.00         21.86         0.00         0.00
     48.8       21.11            0.00            0.00         21.11         0.00         0.00
     35.0       20.15            0.00            0.00         20.15         0.00         0.00
     21.2       18.79            0.00            0.00         18.79         0.00         0.00
      7.5       16.24            0.00            0.00         16.24         0.00         0.00


Harvested Random Seeds after Generation of the Random Numbers:

   1174156610 Harvested seed # 1
   1347877409 Harvested seed # 2


Hub-Height Simulated Turbulence Statistical Summary:

   Type of Wind        Min (m/s)   Mean (m/s)    Max (m/s)  Sigma (m/s)       TI (%)
   ----------------    ---------   ----------    ---------  -----------       ------
   Longitudinal (u)        12.50        23.00        34.84        3.174       13.801
   Lateral (v)            -10.17        -0.00        10.85        2.527       10.986
   Vertical (w)            -6.40         0.00         6.60        1.553        6.751
   U component             12.50        23.00        34.84        3.174       13.801
   V component            -10.17        -0.00        10.85        2.527       10.986
   W component             -6.40         0.00         6.60        1.553        6.751
   Horizontal (U&V)        12.61        23.14        34.87        3.162       13.666
   Total                   12.66        23.19        34.92        3.152       13.592

                       Min Reynolds     Mean Reynolds    Max Reynolds    Correlation
   Product             Stress (m/s)^2   Stress (m/s)^2   Stress (m/s)^2  Coefficient
   ----------------    --------------   --------------   --------------  -----------
   u'w'                    -47.187             0.062            43.440         0.013
   u'v'                    -55.789             0.322            62.618         0.040
   v'w'                    -41.482             0.081            30.751         0.021


   Friction Velocity (Ustar)  =      0.249 m/s
   Maximum Instantaneous TKE  =     73.007 (m/s)^2
   Maximum Instantaneous CTKE =     32.098 (m/s)^2


Grid Point Variance Summary:

   Y-coord  -82.50  -68.75  -55.00  -41.25  -27.50  -13.75    0.00   13.75   27.50   41.25   55.00   68.75   82.50

   Height   Standard deviation at grid points for the u component:
   172.50    3.261   3.299   3.378   3.266   3.259   3.277   3.285   3.253   3.276   3.355   3.332   3.332   3.412
   158.75    3.210   3.289   3.402   3.344   3.196   3.249   3.322   3.235   3.267   3.353   3.291   3.224   3.330
   145.00    3.278   3.240   3.254   3.285   3.195   3.223   3.289   3.273   3.368   3.374   3.344   3.201   3.332
   131.25    3.359   3.258   3.237   3.263   3.211   3.112   3.255   3.291   3.368   3.328   3.247   3.235   3.194
   117.50    3.375   3.387   3.325   3.188   3.214   3.156   3.206   3.277   3.334   3.261   3.259   3.171   3.177
   103.75    3.365   3.350   3.318   3.125   3.158   3.177   3.231   3.158   3.202   3.184   3.210   3.208   3.170
    90.00    3.226   3.377   3.247   3.154   3.203   3.159   3.174   3.182   3.246   3.196   3.206   3.222   3.246
    76.25    3.173   3.181   3.074   3.138   3.164   3.105   3.087   3.179   3.212   3.209   3.199   3.148   3.111
    62.50    3.066   3.041   3.105   3.053   3.077   3.107   3.085   3.118   3.159   3.238   3.181   3.159   3.045
    48.75    3.012   3.051   2.970   3.030   3.086   3.090   3.114   3.200   3.134   3.130   3.103   3.129   3.181
    35.00    3.116   3.078   2.957   2.994   3.113   3.180   3.129   3.216   3.113   3.075   3.148   3.086   3.086
    21.25    3.046   2.966   2.956   2.973   3.105   3.178   3.083   3.075   3.043   3.053   3.183   3.142   3.074
     7.50    3.169   3.069   3.020   3.027   3.084   3.066   3.083   3.117   3.067   3.110   3.075   3.178   3.112

   Height   Standard deviation at grid points for the v component:
   172.50    2.527   2.527   2.527   2.527   2.527   2.527   2.527   2.527   2.527   2.527   2.527   2.527   2.527
   158.75    2.527   2.527   2.527   2.527   2.527   2.527   2.527   2.527   2.527   2.527   2.527   2.527   2.527
   145.00    2.527   2.527   2.527   2.527   2.527   2.527   2.527   2.527   2.527   2.527   2.527   2.527   2.527
   131.25    2.527   2.527   2.527   2.527   2.527   2.527   2.527   2.527   2.527   2.527   2.527   2.527   2.527
   117.50    2.527   2.527   2.527   2.527   2.527   2.527   2.527   2.527   2.527   2.527   2.527   2.527   2.527
   103.75    2.527   2.527   2.527   2.527   2.527   2.527   2.527   2.527   2.527   2.527   2.527   2.527   2.527
    90.00    2.527   2.527   2.527   2.527   2.527   2.527   2.527   2.527   2.527   2.527   2.527   2.527   2.527
    76.25    2.527   2.527   2.527   2.527   2.527   2.527   2.527   2.527   2.527   2.527   2.527   2.527   2.527
    62.50    2.527   2.527   2.527   2.527   2.527   2.527   2.527   2.527   2.527   2.527   2.527   2.527   2.527
    48.75    2.527   2.527   2.527   2.527   2.527   2.527   2.527   2.527   2.527   2.527   2.527   2.527   2.527
    35.00    2.527   2.527   2.527   2.527   2.527   2.527   2.527   2.527   2.527   2.527   2.527   2.527   2.527
    21.25    2.527   2.527   2.527   2.527   2.527   2.527   2.527   2.527   2.527   2.527   2.527   2.527   2.527
     7.50    2.527   2.527   2.527   2.527   2.527   2.527   2.527   2.527   2.527   2.527   2.527   2.527   2.527

   Height   Standard deviation at grid points for the w component:
   172.50    1.553   1.553   1.553   1.553   1.553   1.553   1.553   1.553   1.553   1.553   1.553   1.553   1.553
   158.75    1.553   1.553   1.553   1.553   1.553   1.553   1.553   1.553   1.553   1.553   1.553   1.553   1.553
   145.00    1.553   1.553   1.553   1.553   1.553   1.553   1.553   1.553   1.553   1.553   1.553   1.553   1.553
   131.25    1.553   1.553   1.553   1.553   1.553   1.553   1.553   1.553   1.553   1.553   1.553   1.553   1.553
   117.50    1.553   1.553   1.553   1.553   1.553   1.553   1.553   1.553   1.553   1.553   1.553   1.553   1.553
   103.75    1.553   1.553   1.553   1.553   1.553   1.553   1.553   1.553   1.553   1.553   1.553   1.553   1.553
    90.00    1.553   1.553   1.553   1.553   1.553   1.553   1.553   1.553   1.553   1.553   1.553   1.553   1.553
    76.25    1.553   1.553   1.553   1.553   1.553   1.553   1.553   1.553   1.553   1.553   1.553   1.553   1.553
    62.50    1.553   1.553   1.553   1.553   1.553   1.553   1.553   1.553   1.553   1.553   1.553   1.553   1.553
    48.75    1.553   1.553   1.553   1.553   1.553   1.553   1.553   1.553   1.553   1.553   1.553   1.553   1.553
    35.00    1.553   1.553   1.553   1.553   1.553   1.553   1.553   1.553   1.553   1.553   1.553   1.553   1.553
    21.25    1.553   1.553   1.553   1.553   1.553   1.553   1.553   1.553   1.553   1.553   1.553   1.553   1.553
     7.50    1.553   1.553   1.553   1.553   1.553   1.553   1.553   1.553   1.553   1.553   1.553   1.553   1.553

   Mean standard deviation across all grid points:
      u component:    3.188 m/s
      v component:    2.527 m/s
      w component:    1.553 m/s


U-component (X) statistics from the interpolated hub point:

   Mean =  23.0000 m/s
   TI   =  13.8007 %


Processing complete.  20.203 CPU seconds used.
