
This summary file was generated by TurbSim (v2.00.07a-bjj, 14-Jun-2016) on 22-Mar-2021 at 13:42:14.


Runtime Options:

1686215909  Random seed #1
**********  Random seed #2
         F  Output binary HH turbulence parameters?
         F  Output formatted turbulence parameters?
         F  Output AeroDyn HH files?
         T  Output AeroDyn FF files?
         F  Output BLADED FF files?
         F  Output tower data?
         F  Output formatted FF files?
         F  Output coherent turbulence time step file?
         T  Clockwise rotation when looking downwind?
 0 -  NONE  IEC turbulence models scaled to exact specified standard deviation


Turbine/Model Specifications:

        13  Vertical grid-point matrix dimension
        13  Horizontal grid-point matrix dimension
     0.050  Time step [seconds]
  3630.000  Analysis time [seconds]
  3630.000  Usable output time [seconds]
    90.000  Hub height [m]
   165.000  Grid height [m]
   165.000  Grid width [m]
     0.000  Vertical flow angle [degrees]
     0.000  Horizontal flow angle [degrees]


Meteorological Boundary Conditions:

    IECKAI  IEC Kaimal spectral model
         3  IEC standard: IEC 61400-3 Ed. 1: 2006
         B  IEC turbulence characteristic
       NTM  IEC Normal Turbulence Model
       N/A  IEC Extreme Turbulence Model (ETM) "c" parameter [m/s]
       PL   Wind profile type
    90.000  Reference height [m]
    25.000  Reference wind speed [m/s]
       N/A  Jet height [m]
     0.140  Power law exponent
     0.030  Surface roughness length [m]


Non-IEC Meteorological Boundary Conditions:

       N/A  Site latitude [degrees]
       N/A  Gradient Richardson number
       N/A  Friction or shear velocity [m/s]
       N/A  Mixing layer depth [m]
       N/A  Mean hub u'w' Reynolds stress
       N/A  Mean hub u'v' Reynolds stress
       N/A  Mean hub v'w' Reynolds stress


Spatial Coherence Models:

       IEC  u-component coherence model
      NONE  v-component coherence model
      NONE  w-component coherence model
(   12.000, 0.353E-03)  u-component coherence parameters
                   N/A  v-component coherence parameters
                   N/A  w-component coherence parameters
       N/A  Coherence exponent


You have requested that the following file(s) be generated:

   25_15_15-4.bts (AeroDyn/TurbSim full-field wind file)


Turbulence Simulation Scaling Parameter Summary:

   Turbulence model used                            =  IEC Kaimal
   Turbulence characteristic                        =  B
   IEC turbulence type                              =  Normal Turbulence Model
   IEC standard                                     =  IEC 61400-3 Ed. 1: 2006
   Mean wind speed at hub height                    =   25.000 m/s
   Expected value of turbulence intensity at 15 m/s =   14.000%
   Characteristic value of standard deviation       =    3.409 m/s
   Turbulence scale                                 =   42.000 m
   u-component integral scale                       =  340.200 m
   Coherency scale                                  =  340.200 m
   Characteristic value of hub turbulence intensity =   13.636%
   Gradient Richardson number                       =    0.000

   Wind profile type                                =  Power law
   Power law exponent                               =    0.140
   Mean shear across rotor disk                     =    0.059 (m/s)/m
   Assumed rotor diameter                           =  165.000 m
   Surface roughness length                         =    0.030 m

   Nyquist frequency of turbulent wind field        =   10.000 Hz

   Number of time steps in the FFT                  =    72600
   Number of time steps output                      =    72600
   Number of points simulated                       =      169


Mean Flow Angles:

   Vertical   =   0.0 degrees
   Horizontal =   0.0 degrees

Mean Wind Speed Profile:

   Height    Wind Speed   Horizontal Angle  Vertical Angle  U-comp (X)   V-comp (Y)   W-comp (Z)
     (m)        (m/s)         (degrees)       (degrees)       (m/s)        (m/s)        (m/s)   
   ------    ----------   ----------------  --------------  ----------   ----------   ----------
    172.5       27.38            0.00            0.00         27.38         0.00         0.00
    158.8       27.07            0.00            0.00         27.07         0.00         0.00
    145.0       26.73            0.00            0.00         26.73         0.00         0.00
    131.2       26.36            0.00            0.00         26.36         0.00         0.00
    117.5       25.95            0.00            0.00         25.95         0.00         0.00
    103.8       25.50            0.00            0.00         25.50         0.00         0.00
     90.0       25.00            0.00            0.00         25.00         0.00         0.00
     76.2       24.43            0.00            0.00         24.43         0.00         0.00
     62.5       23.76            0.00            0.00         23.76         0.00         0.00
     48.8       22.94            0.00            0.00         22.94         0.00         0.00
     35.0       21.90            0.00            0.00         21.90         0.00         0.00
     21.2       20.43            0.00            0.00         20.43         0.00         0.00
      7.5       17.65            0.00            0.00         17.65         0.00         0.00


Harvested Random Seeds after Generation of the Random Numbers:

   1660522948 Harvested seed # 1
   1019352961 Harvested seed # 2


Hub-Height Simulated Turbulence Statistical Summary:

   Type of Wind        Min (m/s)   Mean (m/s)    Max (m/s)  Sigma (m/s)       TI (%)
   ----------------    ---------   ----------    ---------  -----------       ------
   Longitudinal (u)        11.92        25.00        40.52        3.586       14.343
   Lateral (v)            -10.86         0.00        12.10        2.691       10.765
   Vertical (w)            -6.50         0.00         7.07        1.652        6.607
   U component             11.92        25.00        40.52        3.586       14.343
   V component            -10.86         0.00        12.10        2.691       10.765
   W component             -6.50         0.00         7.07        1.652        6.607
   Horizontal (U&V)        12.11        25.15        40.63        3.567       14.186
   Total                   12.14        25.20        40.63        3.560       14.125

                       Min Reynolds     Mean Reynolds    Max Reynolds    Correlation
   Product             Stress (m/s)^2   Stress (m/s)^2   Stress (m/s)^2  Coefficient
   ----------------    --------------   --------------   --------------  -----------
   u'w'                    -51.446             0.018            53.464         0.003
   u'v'                    -89.776             0.391            67.960         0.041
   v'w'                    -47.812             0.084            51.026         0.019


   Friction Velocity (Ustar)  =      0.136 m/s
   Maximum Instantaneous TKE  =    125.058 (m/s)^2
   Maximum Instantaneous CTKE =     45.804 (m/s)^2


Grid Point Variance Summary:

   Y-coord  -82.50  -68.75  -55.00  -41.25  -27.50  -13.75    0.00   13.75   27.50   41.25   55.00   68.75   82.50

   Height   Standard deviation at grid points for the u component:
   172.50    3.482   3.471   3.524   3.550   3.415   3.279   3.203   3.281   3.343   3.286   3.334   3.349   3.330
   158.75    3.580   3.548   3.583   3.484   3.405   3.254   3.298   3.336   3.333   3.275   3.292   3.278   3.308
   145.00    3.620   3.586   3.545   3.504   3.408   3.400   3.324   3.357   3.356   3.291   3.303   3.279   3.336
   131.25    3.642   3.574   3.563   3.509   3.491   3.467   3.457   3.381   3.322   3.310   3.379   3.330   3.339
   117.50    3.639   3.624   3.604   3.528   3.470   3.543   3.437   3.375   3.338   3.317   3.325   3.309   3.255
   103.75    3.629   3.636   3.547   3.520   3.464   3.485   3.553   3.361   3.322   3.290   3.379   3.397   3.334
    90.00    3.578   3.619   3.607   3.610   3.525   3.597   3.586   3.477   3.414   3.385   3.353   3.409   3.364
    76.25    3.567   3.683   3.608   3.603   3.602   3.613   3.548   3.399   3.386   3.370   3.424   3.428   3.350
    62.50    3.571   3.533   3.536   3.613   3.584   3.531   3.615   3.480   3.373   3.360   3.326   3.377   3.316
    48.75    3.467   3.504   3.487   3.525   3.507   3.513   3.519   3.458   3.414   3.340   3.255   3.351   3.377
    35.00    3.343   3.436   3.542   3.543   3.527   3.452   3.449   3.333   3.452   3.378   3.379   3.351   3.370
    21.25    3.324   3.365   3.443   3.532   3.526   3.398   3.407   3.349   3.378   3.368   3.381   3.430   3.376
     7.50    3.377   3.382   3.456   3.431   3.436   3.490   3.388   3.349   3.383   3.363   3.342   3.357   3.451

   Height   Standard deviation at grid points for the v component:
   172.50    2.691   2.691   2.691   2.691   2.691   2.691   2.691   2.691   2.691   2.691   2.691   2.691   2.691
   158.75    2.691   2.691   2.691   2.691   2.691   2.691   2.691   2.691   2.691   2.691   2.691   2.691   2.691
   145.00    2.691   2.691   2.691   2.691   2.691   2.691   2.691   2.691   2.691   2.691   2.691   2.691   2.691
   131.25    2.691   2.691   2.691   2.691   2.691   2.691   2.691   2.691   2.691   2.691   2.691   2.691   2.691
   117.50    2.691   2.691   2.691   2.691   2.691   2.691   2.691   2.691   2.691   2.691   2.691   2.691   2.691
   103.75    2.691   2.691   2.691   2.691   2.691   2.691   2.691   2.691   2.691   2.691   2.691   2.691   2.691
    90.00    2.691   2.691   2.691   2.691   2.691   2.691   2.691   2.691   2.691   2.691   2.691   2.691   2.691
    76.25    2.691   2.691   2.691   2.691   2.691   2.691   2.691   2.691   2.691   2.691   2.691   2.691   2.691
    62.50    2.691   2.691   2.691   2.691   2.691   2.691   2.691   2.691   2.691   2.691   2.691   2.691   2.691
    48.75    2.691   2.691   2.691   2.691   2.691   2.691   2.691   2.691   2.691   2.691   2.691   2.691   2.691
    35.00    2.691   2.691   2.691   2.691   2.691   2.691   2.691   2.691   2.691   2.691   2.691   2.691   2.691
    21.25    2.691   2.691   2.691   2.691   2.691   2.691   2.691   2.691   2.691   2.691   2.691   2.691   2.691
     7.50    2.691   2.691   2.691   2.691   2.691   2.691   2.691   2.691   2.691   2.691   2.691   2.691   2.691

   Height   Standard deviation at grid points for the w component:
   172.50    1.652   1.652   1.652   1.652   1.652   1.652   1.652   1.652   1.652   1.652   1.652   1.652   1.652
   158.75    1.652   1.652   1.652   1.652   1.652   1.652   1.652   1.652   1.652   1.652   1.652   1.652   1.652
   145.00    1.652   1.652   1.652   1.652   1.652   1.652   1.652   1.652   1.652   1.652   1.652   1.652   1.652
   131.25    1.652   1.652   1.652   1.652   1.652   1.652   1.652   1.652   1.652   1.652   1.652   1.652   1.652
   117.50    1.652   1.652   1.652   1.652   1.652   1.652   1.652   1.652   1.652   1.652   1.652   1.652   1.652
   103.75    1.652   1.652   1.652   1.652   1.652   1.652   1.652   1.652   1.652   1.652   1.652   1.652   1.652
    90.00    1.652   1.652   1.652   1.652   1.652   1.652   1.652   1.652   1.652   1.652   1.652   1.652   1.652
    76.25    1.652   1.652   1.652   1.652   1.652   1.652   1.652   1.652   1.652   1.652   1.652   1.652   1.652
    62.50    1.652   1.652   1.652   1.652   1.652   1.652   1.652   1.652   1.652   1.652   1.652   1.652   1.652
    48.75    1.652   1.652   1.652   1.652   1.652   1.652   1.652   1.652   1.652   1.652   1.652   1.652   1.652
    35.00    1.652   1.652   1.652   1.652   1.652   1.652   1.652   1.652   1.652   1.652   1.652   1.652   1.652
    21.25    1.652   1.652   1.652   1.652   1.652   1.652   1.652   1.652   1.652   1.652   1.652   1.652   1.652
     7.50    1.652   1.652   1.652   1.652   1.652   1.652   1.652   1.652   1.652   1.652   1.652   1.652   1.652

   Mean standard deviation across all grid points:
      u component:    3.436 m/s
      v component:    2.691 m/s
      w component:    1.652 m/s


U-component (X) statistics from the interpolated hub point:

   Mean =  25.0000 m/s
   TI   =  14.3435 %


Processing complete.  19.891 CPU seconds used.
