
This summary file was generated by TurbSim (v2.00.07a-bjj, 14-Jun-2016) on 22-Mar-2021 at 13:42:40.


Runtime Options:

 686203764  Random seed #1
-187255927  Random seed #2
         F  Output binary HH turbulence parameters?
         F  Output formatted turbulence parameters?
         F  Output AeroDyn HH files?
         T  Output AeroDyn FF files?
         F  Output BLADED FF files?
         F  Output tower data?
         F  Output formatted FF files?
         F  Output coherent turbulence time step file?
         T  Clockwise rotation when looking downwind?
 0 -  NONE  IEC turbulence models scaled to exact specified standard deviation


Turbine/Model Specifications:

        13  Vertical grid-point matrix dimension
        13  Horizontal grid-point matrix dimension
     0.050  Time step [seconds]
  3630.000  Analysis time [seconds]
  3630.000  Usable output time [seconds]
    90.000  Hub height [m]
   165.000  Grid height [m]
   165.000  Grid width [m]
     0.000  Vertical flow angle [degrees]
     0.000  Horizontal flow angle [degrees]


Meteorological Boundary Conditions:

    IECKAI  IEC Kaimal spectral model
         3  IEC standard: IEC 61400-3 Ed. 1: 2006
    11.000  Percent turbulence intensity, IEC 61400-3 Ed. 1: 2006
       NTM  IEC Normal Turbulence Model
       N/A  IEC Extreme Turbulence Model (ETM) "c" parameter [m/s]
       PL   Wind profile type
    90.000  Reference height [m]
    26.000  Reference wind speed [m/s]
       N/A  Jet height [m]
     0.140  Power law exponent
     0.030  Surface roughness length [m]


Non-IEC Meteorological Boundary Conditions:

       N/A  Site latitude [degrees]
       N/A  Gradient Richardson number
       N/A  Friction or shear velocity [m/s]
       N/A  Mixing layer depth [m]
       N/A  Mean hub u'w' Reynolds stress
       N/A  Mean hub u'v' Reynolds stress
       N/A  Mean hub v'w' Reynolds stress


Spatial Coherence Models:

       IEC  u-component coherence model
      NONE  v-component coherence model
      NONE  w-component coherence model
(   12.000, 0.353E-03)  u-component coherence parameters
                   N/A  v-component coherence parameters
                   N/A  w-component coherence parameters
       N/A  Coherence exponent


You have requested that the following file(s) be generated:

   26_15_15-4.bts (AeroDyn/TurbSim full-field wind file)


Turbulence Simulation Scaling Parameter Summary:

   Turbulence model used                            =  IEC Kaimal
   Turbulence characteristic                        =  User-specified
   IEC standard                                     =  IEC 61400-3 Ed. 1: 2006
   Mean wind speed at hub height                    =   26.000 m/s
   Characteristic value of standard deviation       =    2.860 m/s
   Turbulence scale                                 =   42.000 m
   u-component integral scale                       =  340.200 m
   Coherency scale                                  =  340.200 m
   Characteristic value of hub turbulence intensity =   11.000%
   Gradient Richardson number                       =    0.000

   Wind profile type                                =  Power law
   Power law exponent                               =    0.140
   Mean shear across rotor disk                     =    0.061 (m/s)/m
   Assumed rotor diameter                           =  165.000 m
   Surface roughness length                         =    0.030 m

   Nyquist frequency of turbulent wind field        =   10.000 Hz

   Number of time steps in the FFT                  =    72600
   Number of time steps output                      =    72600
   Number of points simulated                       =      169


Mean Flow Angles:

   Vertical   =   0.0 degrees
   Horizontal =   0.0 degrees

Mean Wind Speed Profile:

   Height    Wind Speed   Horizontal Angle  Vertical Angle  U-comp (X)   V-comp (Y)   W-comp (Z)
     (m)        (m/s)         (degrees)       (degrees)       (m/s)        (m/s)        (m/s)   
   ------    ----------   ----------------  --------------  ----------   ----------   ----------
    172.5       28.48            0.00            0.00         28.48         0.00         0.00
    158.8       28.15            0.00            0.00         28.15         0.00         0.00
    145.0       27.80            0.00            0.00         27.80         0.00         0.00
    131.2       27.41            0.00            0.00         27.41         0.00         0.00
    117.5       26.99            0.00            0.00         26.99         0.00         0.00
    103.8       26.52            0.00            0.00         26.52         0.00         0.00
     90.0       26.00            0.00            0.00         26.00         0.00         0.00
     76.2       25.40            0.00            0.00         25.40         0.00         0.00
     62.5       24.71            0.00            0.00         24.71         0.00         0.00
     48.8       23.86            0.00            0.00         23.86         0.00         0.00
     35.0       22.78            0.00            0.00         22.78         0.00         0.00
     21.2       21.24            0.00            0.00         21.24         0.00         0.00
      7.5       18.36            0.00            0.00         18.36         0.00         0.00


Harvested Random Seeds after Generation of the Random Numbers:

   1911911199 Harvested seed # 1
     94054469 Harvested seed # 2


Hub-Height Simulated Turbulence Statistical Summary:

   Type of Wind        Min (m/s)   Mean (m/s)    Max (m/s)  Sigma (m/s)       TI (%)
   ----------------    ---------   ----------    ---------  -----------       ------
   Longitudinal (u)        15.80        26.00        37.39        2.711       10.426
   Lateral (v)             -8.65         0.00         9.12        2.257        8.681
   Vertical (w)            -6.19        -0.00         5.92        1.385        5.325
   U component             15.80        26.00        37.39        2.711       10.426
   V component             -8.65         0.00         9.12        2.257        8.681
   W component             -6.19        -0.00         5.92        1.385        5.325
   Horizontal (U&V)        15.82        26.10        37.41        2.704       10.361
   Total                   16.07        26.14        37.49        2.701       10.334

                       Min Reynolds     Mean Reynolds    Max Reynolds    Correlation
   Product             Stress (m/s)^2   Stress (m/s)^2   Stress (m/s)^2  Coefficient
   ----------------    --------------   --------------   --------------  -----------
   u'w'                    -29.162             0.148            30.820         0.039
   u'v'                    -55.493            -0.119            45.736        -0.019
   v'w'                    -25.021            -0.033            33.167        -0.010


   Friction Velocity (Ustar)  =      0.385 m/s
   Maximum Instantaneous TKE  =     68.536 (m/s)^2
   Maximum Instantaneous CTKE =     31.068 (m/s)^2


Grid Point Variance Summary:

   Y-coord  -82.50  -68.75  -55.00  -41.25  -27.50  -13.75    0.00   13.75   27.50   41.25   55.00   68.75   82.50

   Height   Standard deviation at grid points for the u component:
   172.50    2.838   2.819   2.803   2.828   2.833   2.841   2.875   2.859   2.906   2.927   2.998   3.013   2.936
   158.75    2.847   2.884   2.831   2.799   2.804   2.785   2.768   2.799   2.876   2.898   2.900   2.920   3.006
   145.00    2.818   2.827   2.740   2.746   2.781   2.705   2.764   2.832   2.887   2.859   2.849   2.866   2.906
   131.25    2.772   2.763   2.807   2.769   2.791   2.779   2.742   2.794   2.828   2.864   2.766   2.792   2.828
   117.50    2.726   2.775   2.743   2.697   2.795   2.771   2.738   2.792   2.812   2.778   2.763   2.809   2.836
   103.75    2.760   2.788   2.748   2.710   2.773   2.785   2.805   2.781   2.747   2.771   2.707   2.802   2.833
    90.00    2.792   2.787   2.801   2.816   2.797   2.791   2.711   2.730   2.721   2.791   2.699   2.753   2.805
    76.25    2.845   2.845   2.844   2.780   2.779   2.767   2.762   2.732   2.722   2.700   2.743   2.703   2.771
    62.50    2.827   2.798   2.798   2.812   2.802   2.824   2.777   2.742   2.708   2.729   2.725   2.788   2.753
    48.75    2.808   2.817   2.751   2.809   2.892   2.874   2.808   2.788   2.758   2.726   2.787   2.759   2.748
    35.00    2.789   2.753   2.764   2.812   2.886   2.898   2.820   2.853   2.770   2.833   2.789   2.789   2.723
    21.25    2.805   2.752   2.794   2.809   2.895   2.879   2.811   2.823   2.840   2.842   2.805   2.752   2.689
     7.50    2.833   2.791   2.853   2.893   2.857   2.853   2.812   2.809   2.812   2.844   2.783   2.688   2.768

   Height   Standard deviation at grid points for the v component:
   172.50    2.257   2.257   2.257   2.257   2.257   2.257   2.257   2.257   2.257   2.257   2.257   2.257   2.257
   158.75    2.257   2.257   2.257   2.257   2.257   2.257   2.257   2.257   2.257   2.257   2.257   2.257   2.257
   145.00    2.257   2.257   2.257   2.257   2.257   2.257   2.257   2.257   2.257   2.257   2.257   2.257   2.257
   131.25    2.257   2.257   2.257   2.257   2.257   2.257   2.257   2.257   2.257   2.257   2.257   2.257   2.257
   117.50    2.257   2.257   2.257   2.257   2.257   2.257   2.257   2.257   2.257   2.257   2.257   2.257   2.257
   103.75    2.257   2.257   2.257   2.257   2.257   2.257   2.257   2.257   2.257   2.257   2.257   2.257   2.257
    90.00    2.257   2.257   2.257   2.257   2.257   2.257   2.257   2.257   2.257   2.257   2.257   2.257   2.257
    76.25    2.257   2.257   2.257   2.257   2.257   2.257   2.257   2.257   2.257   2.257   2.257   2.257   2.257
    62.50    2.257   2.257   2.257   2.257   2.257   2.257   2.257   2.257   2.257   2.257   2.257   2.257   2.257
    48.75    2.257   2.257   2.257   2.257   2.257   2.257   2.257   2.257   2.257   2.257   2.257   2.257   2.257
    35.00    2.257   2.257   2.257   2.257   2.257   2.257   2.257   2.257   2.257   2.257   2.257   2.257   2.257
    21.25    2.257   2.257   2.257   2.257   2.257   2.257   2.257   2.257   2.257   2.257   2.257   2.257   2.257
     7.50    2.257   2.257   2.257   2.257   2.257   2.257   2.257   2.257   2.257   2.257   2.257   2.257   2.257

   Height   Standard deviation at grid points for the w component:
   172.50    1.385   1.385   1.385   1.385   1.385   1.385   1.385   1.385   1.385   1.385   1.385   1.385   1.385
   158.75    1.385   1.385   1.385   1.385   1.385   1.385   1.385   1.385   1.385   1.385   1.385   1.385   1.385
   145.00    1.385   1.385   1.385   1.385   1.385   1.385   1.385   1.385   1.385   1.385   1.385   1.385   1.385
   131.25    1.385   1.385   1.385   1.385   1.385   1.385   1.385   1.385   1.385   1.385   1.385   1.385   1.385
   117.50    1.385   1.385   1.385   1.385   1.385   1.385   1.385   1.385   1.385   1.385   1.385   1.385   1.385
   103.75    1.385   1.385   1.385   1.385   1.385   1.385   1.385   1.385   1.385   1.385   1.385   1.385   1.385
    90.00    1.385   1.385   1.385   1.385   1.385   1.385   1.385   1.385   1.385   1.385   1.385   1.385   1.385
    76.25    1.385   1.385   1.385   1.385   1.385   1.385   1.385   1.385   1.385   1.385   1.385   1.385   1.385
    62.50    1.385   1.385   1.385   1.385   1.385   1.385   1.385   1.385   1.385   1.385   1.385   1.385   1.385
    48.75    1.385   1.385   1.385   1.385   1.385   1.385   1.385   1.385   1.385   1.385   1.385   1.385   1.385
    35.00    1.385   1.385   1.385   1.385   1.385   1.385   1.385   1.385   1.385   1.385   1.385   1.385   1.385
    21.25    1.385   1.385   1.385   1.385   1.385   1.385   1.385   1.385   1.385   1.385   1.385   1.385   1.385
     7.50    1.385   1.385   1.385   1.385   1.385   1.385   1.385   1.385   1.385   1.385   1.385   1.385   1.385

   Mean standard deviation across all grid points:
      u component:    2.802 m/s
      v component:    2.257 m/s
      w component:    1.385 m/s


U-component (X) statistics from the interpolated hub point:

   Mean =  26.0000 m/s
   TI   =  10.4256 %


Processing complete.  20.172 CPU seconds used.
