
This summary file was generated by TurbSim (v2.00.07a-bjj, 14-Jun-2016) on 22-Mar-2021 at 13:43:19.


Runtime Options:

2069817357  Random seed #1
1798014305  Random seed #2
         F  Output binary HH turbulence parameters?
         F  Output formatted turbulence parameters?
         F  Output AeroDyn HH files?
         T  Output AeroDyn FF files?
         F  Output BLADED FF files?
         F  Output tower data?
         F  Output formatted FF files?
         F  Output coherent turbulence time step file?
         T  Clockwise rotation when looking downwind?
 0 -  NONE  IEC turbulence models scaled to exact specified standard deviation


Turbine/Model Specifications:

        13  Vertical grid-point matrix dimension
        13  Horizontal grid-point matrix dimension
     0.050  Time step [seconds]
  3630.000  Analysis time [seconds]
  3630.000  Usable output time [seconds]
    90.000  Hub height [m]
   165.000  Grid height [m]
   165.000  Grid width [m]
     0.000  Vertical flow angle [degrees]
     0.000  Horizontal flow angle [degrees]


Meteorological Boundary Conditions:

    IECKAI  IEC Kaimal spectral model
         3  IEC standard: IEC 61400-3 Ed. 1: 2006
    11.000  Percent turbulence intensity, IEC 61400-3 Ed. 1: 2006
       NTM  IEC Normal Turbulence Model
       N/A  IEC Extreme Turbulence Model (ETM) "c" parameter [m/s]
       PL   Wind profile type
    90.000  Reference height [m]
    30.000  Reference wind speed [m/s]
       N/A  Jet height [m]
     0.140  Power law exponent
     0.030  Surface roughness length [m]


Non-IEC Meteorological Boundary Conditions:

       N/A  Site latitude [degrees]
       N/A  Gradient Richardson number
       N/A  Friction or shear velocity [m/s]
       N/A  Mixing layer depth [m]
       N/A  Mean hub u'w' Reynolds stress
       N/A  Mean hub u'v' Reynolds stress
       N/A  Mean hub v'w' Reynolds stress


Spatial Coherence Models:

       IEC  u-component coherence model
      NONE  v-component coherence model
      NONE  w-component coherence model
(   12.000, 0.353E-03)  u-component coherence parameters
                   N/A  v-component coherence parameters
                   N/A  w-component coherence parameters
       N/A  Coherence exponent


You have requested that the following file(s) be generated:

   30_15_15-4.bts (AeroDyn/TurbSim full-field wind file)


Turbulence Simulation Scaling Parameter Summary:

   Turbulence model used                            =  IEC Kaimal
   Turbulence characteristic                        =  User-specified
   IEC standard                                     =  IEC 61400-3 Ed. 1: 2006
   Mean wind speed at hub height                    =   30.000 m/s
   Characteristic value of standard deviation       =    3.300 m/s
   Turbulence scale                                 =   42.000 m
   u-component integral scale                       =  340.200 m
   Coherency scale                                  =  340.200 m
   Characteristic value of hub turbulence intensity =   11.000%
   Gradient Richardson number                       =    0.000

   Wind profile type                                =  Power law
   Power law exponent                               =    0.140
   Mean shear across rotor disk                     =    0.071 (m/s)/m
   Assumed rotor diameter                           =  165.000 m
   Surface roughness length                         =    0.030 m

   Nyquist frequency of turbulent wind field        =   10.000 Hz

   Number of time steps in the FFT                  =    72600
   Number of time steps output                      =    72600
   Number of points simulated                       =      169


Mean Flow Angles:

   Vertical   =   0.0 degrees
   Horizontal =   0.0 degrees

Mean Wind Speed Profile:

   Height    Wind Speed   Horizontal Angle  Vertical Angle  U-comp (X)   V-comp (Y)   W-comp (Z)
     (m)        (m/s)         (degrees)       (degrees)       (m/s)        (m/s)        (m/s)   
   ------    ----------   ----------------  --------------  ----------   ----------   ----------
    172.5       32.86            0.00            0.00         32.86         0.00         0.00
    158.8       32.48            0.00            0.00         32.48         0.00         0.00
    145.0       32.07            0.00            0.00         32.07         0.00         0.00
    131.2       31.63            0.00            0.00         31.63         0.00         0.00
    117.5       31.14            0.00            0.00         31.14         0.00         0.00
    103.8       30.60            0.00            0.00         30.60         0.00         0.00
     90.0       30.00            0.00            0.00         30.00         0.00         0.00
     76.2       29.31            0.00            0.00         29.31         0.00         0.00
     62.5       28.51            0.00            0.00         28.51         0.00         0.00
     48.8       27.53            0.00            0.00         27.53         0.00         0.00
     35.0       26.28            0.00            0.00         26.28         0.00         0.00
     21.2       24.51            0.00            0.00         24.51         0.00         0.00
      7.5       21.19            0.00            0.00         21.19         0.00         0.00


Harvested Random Seeds after Generation of the Random Numbers:

   1107784394 Harvested seed # 1
   1626041437 Harvested seed # 2


Hub-Height Simulated Turbulence Statistical Summary:

   Type of Wind        Min (m/s)   Mean (m/s)    Max (m/s)  Sigma (m/s)       TI (%)
   ----------------    ---------   ----------    ---------  -----------       ------
   Longitudinal (u)        19.59        30.00        44.21        3.140       10.468
   Lateral (v)            -10.13         0.00        10.69        2.602        8.672
   Vertical (w)            -7.69         0.00         7.22        1.593        5.308
   U component             19.59        30.00        44.21        3.140       10.468
   V component            -10.13         0.00        10.69        2.602        8.672
   W component             -7.69         0.00         7.22        1.593        5.308
   Horizontal (U&V)        19.85        30.11        44.23        3.134       10.407
   Total                   20.08        30.16        44.26        3.132       10.385

                       Min Reynolds     Mean Reynolds    Max Reynolds    Correlation
   Product             Stress (m/s)^2   Stress (m/s)^2   Stress (m/s)^2  Coefficient
   ----------------    --------------   --------------   --------------  -----------
   u'w'                    -42.735             0.057            44.934         0.011
   u'v'                    -72.014            -0.510            77.504        -0.062
   v'w'                    -44.181            -0.014            32.003        -0.003


   Friction Velocity (Ustar)  =      0.238 m/s
   Maximum Instantaneous TKE  =    110.487 (m/s)^2
   Maximum Instantaneous CTKE =     40.156 (m/s)^2


Grid Point Variance Summary:

   Y-coord  -82.50  -68.75  -55.00  -41.25  -27.50  -13.75    0.00   13.75   27.50   41.25   55.00   68.75   82.50

   Height   Standard deviation at grid points for the u component:
   172.50    3.138   3.074   3.042   3.053   3.108   3.128   3.182   3.108   3.128   3.149   3.176   3.035   3.039
   158.75    3.115   3.135   3.088   3.071   3.021   3.145   3.139   3.151   3.176   3.198   3.178   3.124   3.070
   145.00    3.092   3.094   3.099   3.043   2.997   3.066   3.160   3.187   3.140   3.109   3.141   3.136   3.094
   131.25    3.101   3.062   2.977   3.084   3.088   3.109   3.161   3.243   3.232   3.133   3.087   3.068   3.155
   117.50    3.118   3.125   3.110   3.008   3.032   3.145   3.251   3.203   3.180   3.121   3.079   3.077   3.144
   103.75    3.134   3.125   3.114   3.060   3.088   3.146   3.169   3.214   3.205   3.137   3.173   3.163   3.190
    90.00    3.133   3.146   3.086   3.092   3.120   3.186   3.140   3.222   3.189   3.201   3.183   3.250   3.270
    76.25    3.164   3.135   3.155   3.145   3.086   3.198   3.209   3.221   3.191   3.209   3.251   3.330   3.356
    62.50    3.233   3.165   3.194   3.144   3.191   3.209   3.182   3.197   3.212   3.219   3.309   3.320   3.328
    48.75    3.232   3.219   3.161   3.184   3.173   3.210   3.212   3.166   3.205   3.260   3.283   3.375   3.312
    35.00    3.288   3.258   3.192   3.205   3.218   3.174   3.183   3.202   3.222   3.259   3.330   3.381   3.377
    21.25    3.273   3.225   3.188   3.250   3.165   3.214   3.225   3.186   3.196   3.252   3.312   3.376   3.359
     7.50    3.268   3.268   3.218   3.175   3.174   3.154   3.242   3.228   3.205   3.195   3.226   3.239   3.245

   Height   Standard deviation at grid points for the v component:
   172.50    2.602   2.602   2.602   2.602   2.602   2.602   2.602   2.602   2.602   2.602   2.602   2.602   2.602
   158.75    2.602   2.602   2.602   2.602   2.602   2.602   2.602   2.602   2.602   2.602   2.602   2.602   2.602
   145.00    2.602   2.602   2.602   2.602   2.602   2.602   2.602   2.602   2.602   2.602   2.602   2.602   2.602
   131.25    2.602   2.602   2.602   2.602   2.602   2.602   2.602   2.602   2.602   2.602   2.602   2.602   2.602
   117.50    2.602   2.602   2.602   2.602   2.602   2.602   2.602   2.602   2.602   2.602   2.602   2.602   2.602
   103.75    2.602   2.602   2.602   2.602   2.602   2.602   2.602   2.602   2.602   2.602   2.602   2.602   2.602
    90.00    2.602   2.602   2.602   2.602   2.602   2.602   2.602   2.602   2.602   2.602   2.602   2.602   2.602
    76.25    2.602   2.602   2.602   2.602   2.602   2.602   2.602   2.602   2.602   2.602   2.602   2.602   2.602
    62.50    2.602   2.602   2.602   2.602   2.602   2.602   2.602   2.602   2.602   2.602   2.602   2.602   2.602
    48.75    2.602   2.602   2.602   2.602   2.602   2.602   2.602   2.602   2.602   2.602   2.602   2.602   2.602
    35.00    2.602   2.602   2.602   2.602   2.602   2.602   2.602   2.602   2.602   2.602   2.602   2.602   2.602
    21.25    2.602   2.602   2.602   2.602   2.602   2.602   2.602   2.602   2.602   2.602   2.602   2.602   2.602
     7.50    2.602   2.602   2.602   2.602   2.602   2.602   2.602   2.602   2.602   2.602   2.602   2.602   2.602

   Height   Standard deviation at grid points for the w component:
   172.50    1.593   1.593   1.593   1.593   1.593   1.593   1.593   1.593   1.593   1.593   1.593   1.593   1.593
   158.75    1.593   1.593   1.593   1.593   1.593   1.593   1.593   1.593   1.593   1.593   1.593   1.593   1.593
   145.00    1.593   1.593   1.593   1.593   1.593   1.593   1.593   1.593   1.593   1.593   1.593   1.593   1.593
   131.25    1.593   1.593   1.593   1.593   1.593   1.593   1.593   1.593   1.593   1.593   1.593   1.593   1.593
   117.50    1.593   1.593   1.593   1.593   1.593   1.593   1.593   1.593   1.593   1.593   1.593   1.593   1.593
   103.75    1.593   1.593   1.593   1.593   1.593   1.593   1.593   1.593   1.593   1.593   1.593   1.593   1.593
    90.00    1.593   1.593   1.593   1.593   1.593   1.593   1.593   1.593   1.593   1.593   1.593   1.593   1.593
    76.25    1.593   1.593   1.593   1.593   1.593   1.593   1.593   1.593   1.593   1.593   1.593   1.593   1.593
    62.50    1.593   1.593   1.593   1.593   1.593   1.593   1.593   1.593   1.593   1.593   1.593   1.593   1.593
    48.75    1.593   1.593   1.593   1.593   1.593   1.593   1.593   1.593   1.593   1.593   1.593   1.593   1.593
    35.00    1.593   1.593   1.593   1.593   1.593   1.593   1.593   1.593   1.593   1.593   1.593   1.593   1.593
    21.25    1.593   1.593   1.593   1.593   1.593   1.593   1.593   1.593   1.593   1.593   1.593   1.593   1.593
     7.50    1.593   1.593   1.593   1.593   1.593   1.593   1.593   1.593   1.593   1.593   1.593   1.593   1.593

   Mean standard deviation across all grid points:
      u component:    3.174 m/s
      v component:    2.602 m/s
      w component:    1.593 m/s


U-component (X) statistics from the interpolated hub point:

   Mean =  30.0000 m/s
   TI   =  10.4681 %


Processing complete.  20.219 CPU seconds used.
