
This summary file was generated by TurbSim (v2.00.07a-bjj, 14-Jun-2016) on 22-Mar-2021 at 13:43:50.


Runtime Options:

-576187916  Random seed #1
-913526380  Random seed #2
         F  Output binary HH turbulence parameters?
         F  Output formatted turbulence parameters?
         F  Output AeroDyn HH files?
         T  Output AeroDyn FF files?
         F  Output BLADED FF files?
         F  Output tower data?
         F  Output formatted FF files?
         F  Output coherent turbulence time step file?
         T  Clockwise rotation when looking downwind?
 0 -  NONE  IEC turbulence models scaled to exact specified standard deviation


Turbine/Model Specifications:

        13  Vertical grid-point matrix dimension
        13  Horizontal grid-point matrix dimension
     0.050  Time step [seconds]
  3630.000  Analysis time [seconds]
  3630.000  Usable output time [seconds]
    90.000  Hub height [m]
   165.000  Grid height [m]
   165.000  Grid width [m]
     0.000  Vertical flow angle [degrees]
     0.000  Horizontal flow angle [degrees]


Meteorological Boundary Conditions:

    IECKAI  IEC Kaimal spectral model
         3  IEC standard: IEC 61400-3 Ed. 1: 2006
    11.000  Percent turbulence intensity, IEC 61400-3 Ed. 1: 2006
       NTM  IEC Normal Turbulence Model
       N/A  IEC Extreme Turbulence Model (ETM) "c" parameter [m/s]
       PL   Wind profile type
    90.000  Reference height [m]
    35.000  Reference wind speed [m/s]
       N/A  Jet height [m]
     0.140  Power law exponent
     0.030  Surface roughness length [m]


Non-IEC Meteorological Boundary Conditions:

       N/A  Site latitude [degrees]
       N/A  Gradient Richardson number
       N/A  Friction or shear velocity [m/s]
       N/A  Mixing layer depth [m]
       N/A  Mean hub u'w' Reynolds stress
       N/A  Mean hub u'v' Reynolds stress
       N/A  Mean hub v'w' Reynolds stress


Spatial Coherence Models:

       IEC  u-component coherence model
      NONE  v-component coherence model
      NONE  w-component coherence model
(   12.000, 0.353E-03)  u-component coherence parameters
                   N/A  v-component coherence parameters
                   N/A  w-component coherence parameters
       N/A  Coherence exponent


You have requested that the following file(s) be generated:

   35_15_15-4.bts (AeroDyn/TurbSim full-field wind file)


Turbulence Simulation Scaling Parameter Summary:

   Turbulence model used                            =  IEC Kaimal
   Turbulence characteristic                        =  User-specified
   IEC standard                                     =  IEC 61400-3 Ed. 1: 2006
   Mean wind speed at hub height                    =   35.000 m/s
   Characteristic value of standard deviation       =    3.850 m/s
   Turbulence scale                                 =   42.000 m
   u-component integral scale                       =  340.200 m
   Coherency scale                                  =  340.200 m
   Characteristic value of hub turbulence intensity =   11.000%
   Gradient Richardson number                       =    0.000

   Wind profile type                                =  Power law
   Power law exponent                               =    0.140
   Mean shear across rotor disk                     =    0.083 (m/s)/m
   Assumed rotor diameter                           =  165.000 m
   Surface roughness length                         =    0.030 m

   Nyquist frequency of turbulent wind field        =   10.000 Hz

   Number of time steps in the FFT                  =    72600
   Number of time steps output                      =    72600
   Number of points simulated                       =      169


Mean Flow Angles:

   Vertical   =   0.0 degrees
   Horizontal =   0.0 degrees

Mean Wind Speed Profile:

   Height    Wind Speed   Horizontal Angle  Vertical Angle  U-comp (X)   V-comp (Y)   W-comp (Z)
     (m)        (m/s)         (degrees)       (degrees)       (m/s)        (m/s)        (m/s)   
   ------    ----------   ----------------  --------------  ----------   ----------   ----------
    172.5       38.34            0.00            0.00         38.34         0.00         0.00
    158.8       37.89            0.00            0.00         37.89         0.00         0.00
    145.0       37.42            0.00            0.00         37.42         0.00         0.00
    131.2       36.90            0.00            0.00         36.90         0.00         0.00
    117.5       36.33            0.00            0.00         36.33         0.00         0.00
    103.8       35.70            0.00            0.00         35.70         0.00         0.00
     90.0       35.00            0.00            0.00         35.00         0.00         0.00
     76.2       34.20            0.00            0.00         34.20         0.00         0.00
     62.5       33.26            0.00            0.00         33.26         0.00         0.00
     48.8       32.12            0.00            0.00         32.12         0.00         0.00
     35.0       30.67            0.00            0.00         30.67         0.00         0.00
     21.2       28.60            0.00            0.00         28.60         0.00         0.00
      7.5       24.72            0.00            0.00         24.72         0.00         0.00


Harvested Random Seeds after Generation of the Random Numbers:

   1480070117 Harvested seed # 1
    964264671 Harvested seed # 2


Hub-Height Simulated Turbulence Statistical Summary:

   Type of Wind        Min (m/s)   Mean (m/s)    Max (m/s)  Sigma (m/s)       TI (%)
   ----------------    ---------   ----------    ---------  -----------       ------
   Longitudinal (u)        16.62        35.00        50.53        3.971       11.345
   Lateral (v)            -10.97         0.00        12.54        3.031        8.660
   Vertical (w)            -7.17         0.00         8.50        1.851        5.288
   U component             16.62        35.00        50.53        3.971       11.345
   V component            -10.97         0.00        12.54        3.031        8.660
   W component             -7.17         0.00         8.50        1.851        5.288
   Horizontal (U&V)        16.83        35.13        50.62        3.958       11.265
   Total                   16.92        35.18        50.63        3.952       11.232

                       Min Reynolds     Mean Reynolds    Max Reynolds    Correlation
   Product             Stress (m/s)^2   Stress (m/s)^2   Stress (m/s)^2  Coefficient
   ----------------    --------------   --------------   --------------  -----------
   u'w'                    -79.915            -0.081            78.252        -0.011
   u'v'                   -100.657            -0.053           106.981        -0.004
   v'w'                    -49.440            -0.095            46.007        -0.017


   Friction Velocity (Ustar)  =      0.285 m/s
   Maximum Instantaneous TKE  =    174.058 (m/s)^2
   Maximum Instantaneous CTKE =     54.747 (m/s)^2


Grid Point Variance Summary:

   Y-coord  -82.50  -68.75  -55.00  -41.25  -27.50  -13.75    0.00   13.75   27.50   41.25   55.00   68.75   82.50

   Height   Standard deviation at grid points for the u component:
   172.50    3.808   3.791   3.748   3.761   3.729   3.757   3.704   3.751   3.788   3.809   3.792   3.879   3.832
   158.75    3.826   3.778   3.728   3.679   3.677   3.778   3.724   3.731   3.864   3.855   3.832   3.921   3.901
   145.00    3.732   3.789   3.717   3.705   3.671   3.731   3.669   3.787   3.844   3.905   3.912   3.889   3.919
   131.25    3.870   3.808   3.890   3.857   3.815   3.809   3.866   3.877   3.835   3.987   3.947   3.885   3.954
   117.50    3.890   3.933   3.951   3.856   3.911   3.886   3.880   3.902   3.914   3.940   3.965   4.017   4.020
   103.75    3.889   3.851   3.943   3.988   3.963   3.902   3.956   3.964   4.032   4.012   3.936   3.940   3.999
    90.00    3.915   3.888   3.925   3.970   3.900   4.014   3.971   3.953   3.994   3.972   3.908   3.984   3.934
    76.25    3.868   3.906   3.996   4.035   3.914   3.973   3.971   3.968   3.913   3.970   3.927   3.948   3.891
    62.50    3.853   3.941   3.916   3.923   3.909   3.960   3.905   4.001   3.970   3.931   3.937   3.947   3.937
    48.75    3.826   3.929   3.908   3.900   3.880   3.885   3.924   3.948   3.875   3.945   3.913   3.935   3.883
    35.00    3.890   3.902   3.906   3.863   3.878   3.850   3.926   3.991   3.892   3.939   3.905   3.911   3.922
    21.25    3.823   3.825   3.815   3.889   3.804   3.838   3.950   3.972   3.946   3.890   3.859   3.867   3.904
     7.50    3.812   3.763   3.777   3.837   3.760   3.825   3.829   3.912   3.896   3.898   3.828   3.788   3.913

   Height   Standard deviation at grid points for the v component:
   172.50    3.031   3.031   3.031   3.031   3.031   3.031   3.031   3.031   3.031   3.031   3.031   3.031   3.031
   158.75    3.031   3.031   3.031   3.031   3.031   3.031   3.031   3.031   3.031   3.031   3.031   3.031   3.031
   145.00    3.031   3.031   3.031   3.031   3.031   3.031   3.031   3.031   3.031   3.031   3.031   3.031   3.031
   131.25    3.031   3.031   3.031   3.031   3.031   3.031   3.031   3.031   3.031   3.031   3.031   3.031   3.031
   117.50    3.031   3.031   3.031   3.031   3.031   3.031   3.031   3.031   3.031   3.031   3.031   3.031   3.031
   103.75    3.031   3.031   3.031   3.031   3.031   3.031   3.031   3.031   3.031   3.031   3.031   3.031   3.031
    90.00    3.031   3.031   3.031   3.031   3.031   3.031   3.031   3.031   3.031   3.031   3.031   3.031   3.031
    76.25    3.031   3.031   3.031   3.031   3.031   3.031   3.031   3.031   3.031   3.031   3.031   3.031   3.031
    62.50    3.031   3.031   3.031   3.031   3.031   3.031   3.031   3.031   3.031   3.031   3.031   3.031   3.031
    48.75    3.031   3.031   3.031   3.031   3.031   3.031   3.031   3.031   3.031   3.031   3.031   3.031   3.031
    35.00    3.031   3.031   3.031   3.031   3.031   3.031   3.031   3.031   3.031   3.031   3.031   3.031   3.031
    21.25    3.031   3.031   3.031   3.031   3.031   3.031   3.031   3.031   3.031   3.031   3.031   3.031   3.031
     7.50    3.031   3.031   3.031   3.031   3.031   3.031   3.031   3.031   3.031   3.031   3.031   3.031   3.031

   Height   Standard deviation at grid points for the w component:
   172.50    1.851   1.851   1.851   1.851   1.851   1.851   1.851   1.851   1.851   1.851   1.851   1.851   1.851
   158.75    1.851   1.851   1.851   1.851   1.851   1.851   1.851   1.851   1.851   1.851   1.851   1.851   1.851
   145.00    1.851   1.851   1.851   1.851   1.851   1.851   1.851   1.851   1.851   1.851   1.851   1.851   1.851
   131.25    1.851   1.851   1.851   1.851   1.851   1.851   1.851   1.851   1.851   1.851   1.851   1.851   1.851
   117.50    1.851   1.851   1.851   1.851   1.851   1.851   1.851   1.851   1.851   1.851   1.851   1.851   1.851
   103.75    1.851   1.851   1.851   1.851   1.851   1.851   1.851   1.851   1.851   1.851   1.851   1.851   1.851
    90.00    1.851   1.851   1.851   1.851   1.851   1.851   1.851   1.851   1.851   1.851   1.851   1.851   1.851
    76.25    1.851   1.851   1.851   1.851   1.851   1.851   1.851   1.851   1.851   1.851   1.851   1.851   1.851
    62.50    1.851   1.851   1.851   1.851   1.851   1.851   1.851   1.851   1.851   1.851   1.851   1.851   1.851
    48.75    1.851   1.851   1.851   1.851   1.851   1.851   1.851   1.851   1.851   1.851   1.851   1.851   1.851
    35.00    1.851   1.851   1.851   1.851   1.851   1.851   1.851   1.851   1.851   1.851   1.851   1.851   1.851
    21.25    1.851   1.851   1.851   1.851   1.851   1.851   1.851   1.851   1.851   1.851   1.851   1.851   1.851
     7.50    1.851   1.851   1.851   1.851   1.851   1.851   1.851   1.851   1.851   1.851   1.851   1.851   1.851

   Mean standard deviation across all grid points:
      u component:    3.882 m/s
      v component:    3.031 m/s
      w component:    1.851 m/s


U-component (X) statistics from the interpolated hub point:

   Mean =  35.0000 m/s
   TI   =  11.3449 %


Processing complete.  19.812 CPU seconds used.
