
This summary file was generated by TurbSim (v2.00.07a-bjj, 14-Jun-2016) on 22-Mar-2021 at 13:45:10.


Runtime Options:

1495206251  Random seed #1
 -27286694  Random seed #2
         F  Output binary HH turbulence parameters?
         F  Output formatted turbulence parameters?
         F  Output AeroDyn HH files?
         T  Output AeroDyn FF files?
         F  Output BLADED FF files?
         F  Output tower data?
         F  Output formatted FF files?
         F  Output coherent turbulence time step file?
         T  Clockwise rotation when looking downwind?
 0 -  NONE  IEC turbulence models scaled to exact specified standard deviation


Turbine/Model Specifications:

        13  Vertical grid-point matrix dimension
        13  Horizontal grid-point matrix dimension
     0.050  Time step [seconds]
  3630.000  Analysis time [seconds]
  3630.000  Usable output time [seconds]
    90.000  Hub height [m]
   165.000  Grid height [m]
   165.000  Grid width [m]
     0.000  Vertical flow angle [degrees]
     0.000  Horizontal flow angle [degrees]


Meteorological Boundary Conditions:

    IECKAI  IEC Kaimal spectral model
         3  IEC standard: IEC 61400-3 Ed. 1: 2006
    11.000  Percent turbulence intensity, IEC 61400-3 Ed. 1: 2006
       NTM  IEC Normal Turbulence Model
       N/A  IEC Extreme Turbulence Model (ETM) "c" parameter [m/s]
       PL   Wind profile type
    90.000  Reference height [m]
    40.000  Reference wind speed [m/s]
       N/A  Jet height [m]
     0.140  Power law exponent
     0.030  Surface roughness length [m]


Non-IEC Meteorological Boundary Conditions:

       N/A  Site latitude [degrees]
       N/A  Gradient Richardson number
       N/A  Friction or shear velocity [m/s]
       N/A  Mixing layer depth [m]
       N/A  Mean hub u'w' Reynolds stress
       N/A  Mean hub u'v' Reynolds stress
       N/A  Mean hub v'w' Reynolds stress


Spatial Coherence Models:

       IEC  u-component coherence model
      NONE  v-component coherence model
      NONE  w-component coherence model
(   12.000, 0.353E-03)  u-component coherence parameters
                   N/A  v-component coherence parameters
                   N/A  w-component coherence parameters
       N/A  Coherence exponent


You have requested that the following file(s) be generated:

   40_15_15-4.bts (AeroDyn/TurbSim full-field wind file)


Turbulence Simulation Scaling Parameter Summary:

   Turbulence model used                            =  IEC Kaimal
   Turbulence characteristic                        =  User-specified
   IEC standard                                     =  IEC 61400-3 Ed. 1: 2006
   Mean wind speed at hub height                    =   40.000 m/s
   Characteristic value of standard deviation       =    4.400 m/s
   Turbulence scale                                 =   42.000 m
   u-component integral scale                       =  340.200 m
   Coherency scale                                  =  340.200 m
   Characteristic value of hub turbulence intensity =   11.000%
   Gradient Richardson number                       =    0.000

   Wind profile type                                =  Power law
   Power law exponent                               =    0.140
   Mean shear across rotor disk                     =    0.094 (m/s)/m
   Assumed rotor diameter                           =  165.000 m
   Surface roughness length                         =    0.030 m

   Nyquist frequency of turbulent wind field        =   10.000 Hz

   Number of time steps in the FFT                  =    72600
   Number of time steps output                      =    72600
   Number of points simulated                       =      169


Mean Flow Angles:

   Vertical   =   0.0 degrees
   Horizontal =   0.0 degrees

Mean Wind Speed Profile:

   Height    Wind Speed   Horizontal Angle  Vertical Angle  U-comp (X)   V-comp (Y)   W-comp (Z)
     (m)        (m/s)         (degrees)       (degrees)       (m/s)        (m/s)        (m/s)   
   ------    ----------   ----------------  --------------  ----------   ----------   ----------
    172.5       43.81            0.00            0.00         43.81         0.00         0.00
    158.8       43.31            0.00            0.00         43.31         0.00         0.00
    145.0       42.76            0.00            0.00         42.76         0.00         0.00
    131.2       42.17            0.00            0.00         42.17         0.00         0.00
    117.5       41.52            0.00            0.00         41.52         0.00         0.00
    103.8       40.80            0.00            0.00         40.80         0.00         0.00
     90.0       40.00            0.00            0.00         40.00         0.00         0.00
     76.2       39.08            0.00            0.00         39.08         0.00         0.00
     62.5       38.01            0.00            0.00         38.01         0.00         0.00
     48.8       36.71            0.00            0.00         36.71         0.00         0.00
     35.0       35.05            0.00            0.00         35.05         0.00         0.00
     21.2       32.68            0.00            0.00         32.68         0.00         0.00
      7.5       28.25            0.00            0.00         28.25         0.00         0.00


Harvested Random Seeds after Generation of the Random Numbers:

   1941514248 Harvested seed # 1
   1706671003 Harvested seed # 2


Hub-Height Simulated Turbulence Statistical Summary:

   Type of Wind        Min (m/s)   Mean (m/s)    Max (m/s)  Sigma (m/s)       TI (%)
   ----------------    ---------   ----------    ---------  -----------       ------
   Longitudinal (u)        23.49        40.00        57.42        4.301       10.752
   Lateral (v)            -14.46        -0.00        14.21        3.460        8.649
   Vertical (w)            -9.18        -0.00         8.93        2.107        5.269
   U component             23.49        40.00        57.42        4.301       10.752
   V component            -14.46        -0.00        14.21        3.460        8.649
   W component             -9.18        -0.00         8.93        2.107        5.269
   Horizontal (U&V)        23.52        40.15        57.72        4.288       10.680
   Total                   23.60        40.21        57.87        4.284       10.654

                       Min Reynolds     Mean Reynolds    Max Reynolds    Correlation
   Product             Stress (m/s)^2   Stress (m/s)^2   Stress (m/s)^2  Coefficient
   ----------------    --------------   --------------   --------------  -----------
   u'w'                    -90.415             0.073            83.449         0.008
   u'v'                   -118.151             0.505           158.657         0.034
   v'w'                    -53.145             0.018            90.195         0.002


   Friction Velocity (Ustar)  =      0.270 m/s
   Maximum Instantaneous TKE  =    177.812 (m/s)^2
   Maximum Instantaneous CTKE =     84.058 (m/s)^2


Grid Point Variance Summary:

   Y-coord  -82.50  -68.75  -55.00  -41.25  -27.50  -13.75    0.00   13.75   27.50   41.25   55.00   68.75   82.50

   Height   Standard deviation at grid points for the u component:
   172.50    4.412   4.359   4.367   4.327   4.362   4.407   4.474   4.313   4.304   4.293   4.347   4.400   4.412
   158.75    4.460   4.412   4.381   4.415   4.344   4.413   4.400   4.313   4.250   4.231   4.306   4.333   4.380
   145.00    4.395   4.413   4.379   4.330   4.377   4.279   4.293   4.289   4.308   4.342   4.404   4.268   4.271
   131.25    4.336   4.386   4.342   4.360   4.338   4.260   4.329   4.312   4.273   4.356   4.367   4.407   4.359
   117.50    4.382   4.373   4.311   4.242   4.274   4.251   4.335   4.337   4.397   4.414   4.402   4.405   4.261
   103.75    4.389   4.426   4.292   4.293   4.324   4.323   4.271   4.364   4.472   4.433   4.506   4.354   4.420
    90.00    4.336   4.334   4.319   4.331   4.268   4.238   4.301   4.412   4.457   4.518   4.573   4.444   4.511
    76.25    4.283   4.266   4.341   4.337   4.313   4.232   4.304   4.406   4.445   4.477   4.462   4.396   4.442
    62.50    4.301   4.233   4.273   4.322   4.330   4.234   4.324   4.342   4.390   4.428   4.430   4.355   4.346
    48.75    4.277   4.281   4.354   4.348   4.404   4.363   4.348   4.341   4.356   4.344   4.377   4.364   4.359
    35.00    4.293   4.256   4.344   4.517   4.448   4.388   4.362   4.270   4.202   4.272   4.322   4.357   4.347
    21.25    4.298   4.400   4.371   4.399   4.391   4.472   4.345   4.320   4.275   4.382   4.326   4.259   4.277
     7.50    4.355   4.389   4.370   4.469   4.445   4.408   4.275   4.276   4.238   4.282   4.305   4.314   4.286

   Height   Standard deviation at grid points for the v component:
   172.50    3.460   3.460   3.460   3.460   3.460   3.460   3.460   3.460   3.460   3.460   3.460   3.460   3.460
   158.75    3.460   3.460   3.460   3.460   3.460   3.460   3.460   3.460   3.460   3.460   3.460   3.460   3.460
   145.00    3.460   3.460   3.460   3.460   3.460   3.460   3.460   3.460   3.460   3.460   3.460   3.460   3.460
   131.25    3.460   3.460   3.460   3.460   3.460   3.460   3.460   3.460   3.460   3.460   3.460   3.460   3.460
   117.50    3.460   3.460   3.460   3.460   3.460   3.460   3.460   3.460   3.460   3.460   3.460   3.460   3.460
   103.75    3.460   3.460   3.460   3.460   3.460   3.460   3.460   3.460   3.460   3.460   3.460   3.460   3.460
    90.00    3.460   3.460   3.460   3.460   3.460   3.460   3.460   3.460   3.460   3.460   3.460   3.460   3.460
    76.25    3.460   3.460   3.460   3.460   3.460   3.460   3.460   3.460   3.460   3.460   3.460   3.460   3.460
    62.50    3.460   3.460   3.460   3.460   3.460   3.460   3.460   3.460   3.460   3.460   3.460   3.460   3.460
    48.75    3.460   3.460   3.460   3.460   3.460   3.460   3.460   3.460   3.460   3.460   3.460   3.460   3.460
    35.00    3.460   3.460   3.460   3.460   3.460   3.460   3.460   3.460   3.460   3.460   3.460   3.460   3.460
    21.25    3.460   3.460   3.460   3.460   3.460   3.460   3.460   3.460   3.460   3.460   3.460   3.460   3.460
     7.50    3.460   3.460   3.460   3.460   3.460   3.460   3.460   3.460   3.460   3.460   3.460   3.460   3.460

   Height   Standard deviation at grid points for the w component:
   172.50    2.107   2.107   2.107   2.107   2.107   2.107   2.107   2.107   2.107   2.107   2.107   2.107   2.107
   158.75    2.107   2.107   2.107   2.107   2.107   2.107   2.107   2.107   2.107   2.107   2.107   2.107   2.107
   145.00    2.107   2.107   2.107   2.107   2.107   2.107   2.107   2.107   2.107   2.107   2.107   2.107   2.107
   131.25    2.107   2.107   2.107   2.107   2.107   2.107   2.107   2.107   2.107   2.107   2.107   2.107   2.107
   117.50    2.107   2.107   2.107   2.107   2.107   2.107   2.107   2.107   2.107   2.107   2.107   2.107   2.107
   103.75    2.107   2.107   2.107   2.107   2.107   2.107   2.107   2.107   2.107   2.107   2.107   2.107   2.107
    90.00    2.107   2.107   2.107   2.107   2.107   2.107   2.107   2.107   2.107   2.107   2.107   2.107   2.107
    76.25    2.107   2.107   2.107   2.107   2.107   2.107   2.107   2.107   2.107   2.107   2.107   2.107   2.107
    62.50    2.107   2.107   2.107   2.107   2.107   2.107   2.107   2.107   2.107   2.107   2.107   2.107   2.107
    48.75    2.107   2.107   2.107   2.107   2.107   2.107   2.107   2.107   2.107   2.107   2.107   2.107   2.107
    35.00    2.107   2.107   2.107   2.107   2.107   2.107   2.107   2.107   2.107   2.107   2.107   2.107   2.107
    21.25    2.107   2.107   2.107   2.107   2.107   2.107   2.107   2.107   2.107   2.107   2.107   2.107   2.107
     7.50    2.107   2.107   2.107   2.107   2.107   2.107   2.107   2.107   2.107   2.107   2.107   2.107   2.107

   Mean standard deviation across all grid points:
      u component:    4.351 m/s
      v component:    3.460 m/s
      w component:    2.107 m/s


U-component (X) statistics from the interpolated hub point:

   Mean =  40.0000 m/s
   TI   =  10.7519 %


Processing complete.  20.391 CPU seconds used.
