
This summary file was generated by TurbSim (v2.00.07a-bjj, 14-Jun-2016) on 22-Mar-2021 at 13:45:34.


Runtime Options:

-944905798  Random seed #1
 442600933  Random seed #2
         F  Output binary HH turbulence parameters?
         F  Output formatted turbulence parameters?
         F  Output AeroDyn HH files?
         T  Output AeroDyn FF files?
         F  Output BLADED FF files?
         F  Output tower data?
         F  Output formatted FF files?
         F  Output coherent turbulence time step file?
         T  Clockwise rotation when looking downwind?
 0 -  NONE  IEC turbulence models scaled to exact specified standard deviation


Turbine/Model Specifications:

        13  Vertical grid-point matrix dimension
        13  Horizontal grid-point matrix dimension
     0.050  Time step [seconds]
  3630.000  Analysis time [seconds]
  3630.000  Usable output time [seconds]
    90.000  Hub height [m]
   165.000  Grid height [m]
   165.000  Grid width [m]
     0.000  Vertical flow angle [degrees]
     0.000  Horizontal flow angle [degrees]


Meteorological Boundary Conditions:

    IECKAI  IEC Kaimal spectral model
         3  IEC standard: IEC 61400-3 Ed. 1: 2006
    11.000  Percent turbulence intensity, IEC 61400-3 Ed. 1: 2006
       NTM  IEC Normal Turbulence Model
       N/A  IEC Extreme Turbulence Model (ETM) "c" parameter [m/s]
       PL   Wind profile type
    90.000  Reference height [m]
    45.000  Reference wind speed [m/s]
       N/A  Jet height [m]
     0.140  Power law exponent
     0.030  Surface roughness length [m]


Non-IEC Meteorological Boundary Conditions:

       N/A  Site latitude [degrees]
       N/A  Gradient Richardson number
       N/A  Friction or shear velocity [m/s]
       N/A  Mixing layer depth [m]
       N/A  Mean hub u'w' Reynolds stress
       N/A  Mean hub u'v' Reynolds stress
       N/A  Mean hub v'w' Reynolds stress


Spatial Coherence Models:

       IEC  u-component coherence model
      NONE  v-component coherence model
      NONE  w-component coherence model
(   12.000, 0.353E-03)  u-component coherence parameters
                   N/A  v-component coherence parameters
                   N/A  w-component coherence parameters
       N/A  Coherence exponent


You have requested that the following file(s) be generated:

   45_15_15-4.bts (AeroDyn/TurbSim full-field wind file)


Turbulence Simulation Scaling Parameter Summary:

   Turbulence model used                            =  IEC Kaimal
   Turbulence characteristic                        =  User-specified
   IEC standard                                     =  IEC 61400-3 Ed. 1: 2006
   Mean wind speed at hub height                    =   45.000 m/s
   Characteristic value of standard deviation       =    4.950 m/s
   Turbulence scale                                 =   42.000 m
   u-component integral scale                       =  340.200 m
   Coherency scale                                  =  340.200 m
   Characteristic value of hub turbulence intensity =   11.000%
   Gradient Richardson number                       =    0.000

   Wind profile type                                =  Power law
   Power law exponent                               =    0.140
   Mean shear across rotor disk                     =    0.106 (m/s)/m
   Assumed rotor diameter                           =  165.000 m
   Surface roughness length                         =    0.030 m

   Nyquist frequency of turbulent wind field        =   10.000 Hz

   Number of time steps in the FFT                  =    72600
   Number of time steps output                      =    72600
   Number of points simulated                       =      169


Mean Flow Angles:

   Vertical   =   0.0 degrees
   Horizontal =   0.0 degrees

Mean Wind Speed Profile:

   Height    Wind Speed   Horizontal Angle  Vertical Angle  U-comp (X)   V-comp (Y)   W-comp (Z)
     (m)        (m/s)         (degrees)       (degrees)       (m/s)        (m/s)        (m/s)   
   ------    ----------   ----------------  --------------  ----------   ----------   ----------
    172.5       49.29            0.00            0.00         49.29         0.00         0.00
    158.8       48.72            0.00            0.00         48.72         0.00         0.00
    145.0       48.11            0.00            0.00         48.11         0.00         0.00
    131.2       47.44            0.00            0.00         47.44         0.00         0.00
    117.5       46.71            0.00            0.00         46.71         0.00         0.00
    103.8       45.90            0.00            0.00         45.90         0.00         0.00
     90.0       45.00            0.00            0.00         45.00         0.00         0.00
     76.2       43.97            0.00            0.00         43.97         0.00         0.00
     62.5       42.76            0.00            0.00         42.76         0.00         0.00
     48.8       41.30            0.00            0.00         41.30         0.00         0.00
     35.0       39.43            0.00            0.00         39.43         0.00         0.00
     21.2       36.77            0.00            0.00         36.77         0.00         0.00
      7.5       31.78            0.00            0.00         31.78         0.00         0.00


Harvested Random Seeds after Generation of the Random Numbers:

   1798114160 Harvested seed # 1
   1695927043 Harvested seed # 2


Hub-Height Simulated Turbulence Statistical Summary:

   Type of Wind        Min (m/s)   Mean (m/s)    Max (m/s)  Sigma (m/s)       TI (%)
   ----------------    ---------   ----------    ---------  -----------       ------
   Longitudinal (u)        26.10        45.00        62.86        5.013       11.139
   Lateral (v)            -15.49         0.00        17.89        3.887        8.638
   Vertical (w)            -8.97        -0.00         9.53        2.362        5.250
   U component             26.10        45.00        62.86        5.013       11.139
   V component            -15.49         0.00        17.89        3.887        8.638
   W component             -8.97        -0.00         9.53        2.362        5.250
   Horizontal (U&V)        26.24        45.17        62.86        4.998       11.064
   Total                   26.35        45.23        62.93        4.991       11.035

                       Min Reynolds     Mean Reynolds    Max Reynolds    Correlation
   Product             Stress (m/s)^2   Stress (m/s)^2   Stress (m/s)^2  Coefficient
   ----------------    --------------   --------------   --------------  -----------
   u'w'                    -90.998             0.138           115.495         0.012
   u'v'                   -146.351            -0.220           171.368        -0.011
   v'w'                    -67.518             0.064            77.499         0.007


   Friction Velocity (Ustar)  =      0.372 m/s
   Maximum Instantaneous TKE  =    196.111 (m/s)^2
   Maximum Instantaneous CTKE =     85.701 (m/s)^2


Grid Point Variance Summary:

   Y-coord  -82.50  -68.75  -55.00  -41.25  -27.50  -13.75    0.00   13.75   27.50   41.25   55.00   68.75   82.50

   Height   Standard deviation at grid points for the u component:
   172.50    5.049   5.068   5.142   5.221   5.220   5.278   5.168   5.103   5.014   4.978   5.094   4.931   4.905
   158.75    5.060   5.032   5.065   5.120   5.129   5.010   5.108   5.058   5.124   5.058   4.971   4.949   4.999
   145.00    5.048   5.079   5.097   5.178   5.068   4.960   5.048   5.064   5.115   5.011   5.059   5.028   5.060
   131.25    5.083   5.187   5.128   5.166   5.057   4.998   5.010   5.079   5.116   5.099   5.037   5.106   5.135
   117.50    5.006   5.046   5.091   5.172   5.041   5.006   5.103   5.188   5.089   5.060   5.025   5.029   5.153
   103.75    4.951   5.007   5.070   5.038   5.013   5.069   5.067   5.025   5.003   4.874   4.980   5.050   5.004
    90.00    5.019   5.118   5.017   5.053   5.040   4.904   5.013   4.970   4.936   4.855   4.859   4.959   4.886
    76.25    5.020   5.011   4.925   4.929   4.956   4.941   4.856   4.924   4.991   4.918   4.934   4.879   4.979
    62.50    4.899   4.925   4.889   4.939   4.919   4.941   4.743   4.871   4.898   4.812   4.788   4.937   5.008
    48.75    4.967   4.924   4.872   4.913   4.978   4.993   4.939   4.936   4.857   4.844   4.869   4.920   4.901
    35.00    5.054   4.983   4.967   4.903   4.982   5.055   5.016   4.923   4.908   4.904   4.903   4.877   4.913
    21.25    4.974   4.988   5.034   5.001   5.030   5.068   4.978   4.948   4.904   4.835   4.833   4.835   4.837
     7.50    4.898   4.974   5.033   4.988   5.028   5.093   4.993   5.016   4.874   4.872   4.848   4.896   4.970

   Height   Standard deviation at grid points for the v component:
   172.50    3.887   3.887   3.887   3.887   3.887   3.887   3.887   3.887   3.887   3.887   3.887   3.887   3.887
   158.75    3.887   3.887   3.887   3.887   3.887   3.887   3.887   3.887   3.887   3.887   3.887   3.887   3.887
   145.00    3.887   3.887   3.887   3.887   3.887   3.887   3.887   3.887   3.887   3.887   3.887   3.887   3.887
   131.25    3.887   3.887   3.887   3.887   3.887   3.887   3.887   3.887   3.887   3.887   3.887   3.887   3.887
   117.50    3.887   3.887   3.887   3.887   3.887   3.887   3.887   3.887   3.887   3.887   3.887   3.887   3.887
   103.75    3.887   3.887   3.887   3.887   3.887   3.887   3.887   3.887   3.887   3.887   3.887   3.887   3.887
    90.00    3.887   3.887   3.887   3.887   3.887   3.887   3.887   3.887   3.887   3.887   3.887   3.887   3.887
    76.25    3.887   3.887   3.887   3.887   3.887   3.887   3.887   3.887   3.887   3.887   3.887   3.887   3.887
    62.50    3.887   3.887   3.887   3.887   3.887   3.887   3.887   3.887   3.887   3.887   3.887   3.887   3.887
    48.75    3.887   3.887   3.887   3.887   3.887   3.887   3.887   3.887   3.887   3.887   3.887   3.887   3.887
    35.00    3.887   3.887   3.887   3.887   3.887   3.887   3.887   3.887   3.887   3.887   3.887   3.887   3.887
    21.25    3.887   3.887   3.887   3.887   3.887   3.887   3.887   3.887   3.887   3.887   3.887   3.887   3.887
     7.50    3.887   3.887   3.887   3.887   3.887   3.887   3.887   3.887   3.887   3.887   3.887   3.887   3.887

   Height   Standard deviation at grid points for the w component:
   172.50    2.362   2.362   2.362   2.362   2.362   2.362   2.362   2.362   2.362   2.362   2.362   2.362   2.362
   158.75    2.362   2.362   2.362   2.362   2.362   2.362   2.362   2.362   2.362   2.362   2.362   2.362   2.362
   145.00    2.362   2.362   2.362   2.362   2.362   2.362   2.362   2.362   2.362   2.362   2.362   2.362   2.362
   131.25    2.362   2.362   2.362   2.362   2.362   2.362   2.362   2.362   2.362   2.362   2.362   2.362   2.362
   117.50    2.362   2.362   2.362   2.362   2.362   2.362   2.362   2.362   2.362   2.362   2.362   2.362   2.362
   103.75    2.362   2.362   2.362   2.362   2.362   2.362   2.362   2.362   2.362   2.362   2.362   2.362   2.362
    90.00    2.362   2.362   2.362   2.362   2.362   2.362   2.362   2.362   2.362   2.362   2.362   2.362   2.362
    76.25    2.362   2.362   2.362   2.362   2.362   2.362   2.362   2.362   2.362   2.362   2.362   2.362   2.362
    62.50    2.362   2.362   2.362   2.362   2.362   2.362   2.362   2.362   2.362   2.362   2.362   2.362   2.362
    48.75    2.362   2.362   2.362   2.362   2.362   2.362   2.362   2.362   2.362   2.362   2.362   2.362   2.362
    35.00    2.362   2.362   2.362   2.362   2.362   2.362   2.362   2.362   2.362   2.362   2.362   2.362   2.362
    21.25    2.362   2.362   2.362   2.362   2.362   2.362   2.362   2.362   2.362   2.362   2.362   2.362   2.362
     7.50    2.362   2.362   2.362   2.362   2.362   2.362   2.362   2.362   2.362   2.362   2.362   2.362   2.362

   Mean standard deviation across all grid points:
      u component:    4.997 m/s
      v component:    3.887 m/s
      w component:    2.362 m/s


U-component (X) statistics from the interpolated hub point:

   Mean =  45.0000 m/s
   TI   =  11.1392 %


Processing complete.  20.188 CPU seconds used.
