
This summary file was generated by TurbSim (v2.00.07a-bjj, 14-Jun-2016) on 23-Mar-2020 at 10:19:49.


Runtime Options:

        41  Random seed #1
        42  Random seed #2
         F  Output binary HH turbulence parameters?
         F  Output formatted turbulence parameters?
         F  Output AeroDyn HH files?
         T  Output AeroDyn FF files?
         F  Output BLADED FF files?
         F  Output tower data?
         F  Output formatted FF files?
         F  Output coherent turbulence time step file?
         T  Clockwise rotation when looking downwind?
 0 -  NONE  IEC turbulence models scaled to exact specified standard deviation


Turbine/Model Specifications:

        13  Vertical grid-point matrix dimension
        13  Horizontal grid-point matrix dimension
     0.050  Time step [seconds]
  3630.000  Analysis time [seconds]
  3630.000  Usable output time [seconds]
    90.000  Hub height [m]
   165.000  Grid height [m]
   165.000  Grid width [m]
     0.000  Vertical flow angle [degrees]
     0.000  Horizontal flow angle [degrees]


Meteorological Boundary Conditions:

    IECKAI  IEC Kaimal spectral model
         3  IEC standard: IEC 61400-3 Ed. 1: 2006
    11.000  Percent turbulence intensity, IEC 61400-3 Ed. 1: 2006
       NTM  IEC Normal Turbulence Model
       N/A  IEC Extreme Turbulence Model (ETM) "c" parameter [m/s]
       IEC  Wind profile type
    90.000  Reference height [m]
    30.000  Reference wind speed [m/s]
       N/A  Jet height [m]
     0.140  Power law exponent
     0.030  Surface roughness length [m]


Non-IEC Meteorological Boundary Conditions:

       N/A  Site latitude [degrees]
       N/A  Gradient Richardson number
       N/A  Friction or shear velocity [m/s]
       N/A  Mixing layer depth [m]
       N/A  Mean hub u'w' Reynolds stress
       N/A  Mean hub u'v' Reynolds stress
       N/A  Mean hub v'w' Reynolds stress


Spatial Coherence Models:

       IEC  u-component coherence model
      NONE  v-component coherence model
      NONE  w-component coherence model
(   12.000, 0.353E-03)  u-component coherence parameters
                   N/A  v-component coherence parameters
                   N/A  w-component coherence parameters
       N/A  Coherence exponent


You have requested that the following file(s) be generated:

   4_30.bts (AeroDyn/TurbSim full-field wind file)


Turbulence Simulation Scaling Parameter Summary:

   Turbulence model used                            =  IEC Kaimal
   Turbulence characteristic                        =  User-specified
   IEC standard                                     =  IEC 61400-3 Ed. 1: 2006
   Mean wind speed at hub height                    =   30.000 m/s
   Characteristic value of standard deviation       =    3.300 m/s
   Turbulence scale                                 =   42.000 m
   u-component integral scale                       =  340.200 m
   Coherency scale                                  =  340.200 m
   Characteristic value of hub turbulence intensity =   11.000%
   Gradient Richardson number                       =    0.000

   Wind profile type                                =  Power law on rotor disk, logarithmic elsewhere
   Power law exponent                               =    0.140
   Mean shear across rotor disk                     =    0.071 (m/s)/m
   Assumed rotor diameter                           =  165.000 m
   Surface roughness length                         =    0.030 m

   Nyquist frequency of turbulent wind field        =   10.000 Hz

   Number of time steps in the FFT                  =    72600
   Number of time steps output                      =    72600
   Number of points simulated                       =      169


Mean Flow Angles:

   Vertical   =   0.0 degrees
   Horizontal =   0.0 degrees

Mean Wind Speed Profile:

   Height    Wind Speed   Horizontal Angle  Vertical Angle  U-comp (X)   V-comp (Y)   W-comp (Z)
     (m)        (m/s)         (degrees)       (degrees)       (m/s)        (m/s)        (m/s)   
   ------    ----------   ----------------  --------------  ----------   ----------   ----------
    172.5       32.86            0.00            0.00         32.86         0.00         0.00
    158.8       32.48            0.00            0.00         32.48         0.00         0.00
    145.0       32.07            0.00            0.00         32.07         0.00         0.00
    131.2       31.63            0.00            0.00         31.63         0.00         0.00
    117.5       31.14            0.00            0.00         31.14         0.00         0.00
    103.8       30.60            0.00            0.00         30.60         0.00         0.00
     90.0       30.00            0.00            0.00         30.00         0.00         0.00
     76.2       29.31            0.00            0.00         29.31         0.00         0.00
     62.5       28.51            0.00            0.00         28.51         0.00         0.00
     48.8       27.53            0.00            0.00         27.53         0.00         0.00
     35.0       26.28            0.00            0.00         26.28         0.00         0.00
     21.2       24.51            0.00            0.00         24.51         0.00         0.00
      7.5       21.19            0.00            0.00         21.19         0.00         0.00


Harvested Random Seeds after Generation of the Random Numbers:

   2110154368 Harvested seed # 1
    967694281 Harvested seed # 2


Hub-Height Simulated Turbulence Statistical Summary:

   Type of Wind        Min (m/s)   Mean (m/s)    Max (m/s)  Sigma (m/s)       TI (%)
   ----------------    ---------   ----------    ---------  -----------       ------
   Longitudinal (u)        18.14        30.00        43.29        3.438       11.461
   Lateral (v)            -11.42         0.00        10.10        2.602        8.672
   Vertical (w)            -6.29        -0.00         6.77        1.593        5.308
   U component             18.14        30.00        43.29        3.438       11.461
   V component            -11.42         0.00        10.10        2.602        8.672
   W component             -6.29        -0.00         6.77        1.593        5.308
   Horizontal (U&V)        18.59        30.11        43.43        3.425       11.372
   Total                   18.65        30.16        43.43        3.422       11.346

                       Min Reynolds     Mean Reynolds    Max Reynolds    Correlation
   Product             Stress (m/s)^2   Stress (m/s)^2   Stress (m/s)^2  Coefficient
   ----------------    --------------   --------------   --------------  -----------
   u'w'                    -46.861            -0.022            57.651        -0.004
   u'v'                    -70.406            -0.835            65.946        -0.093
   v'w'                    -34.884             0.076            32.070         0.018


   Friction Velocity (Ustar)  =      0.150 m/s
   Maximum Instantaneous TKE  =     94.427 (m/s)^2
   Maximum Instantaneous CTKE =     36.105 (m/s)^2


Grid Point Variance Summary:

   Y-coord  -82.50  -68.75  -55.00  -41.25  -27.50  -13.75    0.00   13.75   27.50   41.25   55.00   68.75   82.50

   Height   Standard deviation at grid points for the u component:
   172.50    3.427   3.355   3.384   3.499   3.513   3.452   3.381   3.417   3.338   3.280   3.288   3.233   3.217
   158.75    3.365   3.331   3.391   3.392   3.377   3.448   3.378   3.410   3.403   3.397   3.376   3.297   3.226
   145.00    3.317   3.350   3.436   3.401   3.330   3.366   3.457   3.438   3.385   3.403   3.431   3.408   3.344
   131.25    3.302   3.340   3.437   3.405   3.394   3.411   3.407   3.459   3.410   3.454   3.407   3.414   3.377
   117.50    3.227   3.373   3.402   3.423   3.433   3.342   3.393   3.443   3.500   3.405   3.375   3.341   3.294
   103.75    3.284   3.440   3.383   3.398   3.444   3.417   3.431   3.396   3.387   3.357   3.319   3.365   3.322
    90.00    3.426   3.408   3.391   3.331   3.333   3.298   3.438   3.442   3.347   3.398   3.332   3.356   3.353
    76.25    3.354   3.394   3.424   3.382   3.348   3.257   3.309   3.308   3.304   3.325   3.358   3.349   3.376
    62.50    3.354   3.427   3.288   3.336   3.271   3.272   3.204   3.300   3.301   3.310   3.341   3.311   3.403
    48.75    3.318   3.372   3.386   3.296   3.279   3.295   3.195   3.194   3.218   3.257   3.255   3.359   3.401
    35.00    3.322   3.288   3.306   3.259   3.270   3.295   3.237   3.208   3.214   3.151   3.176   3.276   3.357
    21.25    3.288   3.253   3.285   3.262   3.269   3.226   3.176   3.199   3.127   3.129   3.179   3.260   3.285
     7.50    3.268   3.225   3.324   3.357   3.260   3.299   3.177   3.164   3.144   3.119   3.178   3.209   3.207

   Height   Standard deviation at grid points for the v component:
   172.50    2.602   2.602   2.602   2.602   2.602   2.602   2.602   2.602   2.602   2.602   2.602   2.602   2.602
   158.75    2.602   2.602   2.602   2.602   2.602   2.602   2.602   2.602   2.602   2.602   2.602   2.602   2.602
   145.00    2.602   2.602   2.602   2.602   2.602   2.602   2.602   2.602   2.602   2.602   2.602   2.602   2.602
   131.25    2.602   2.602   2.602   2.602   2.602   2.602   2.602   2.602   2.602   2.602   2.602   2.602   2.602
   117.50    2.602   2.602   2.602   2.602   2.602   2.602   2.602   2.602   2.602   2.602   2.602   2.602   2.602
   103.75    2.602   2.602   2.602   2.602   2.602   2.602   2.602   2.602   2.602   2.602   2.602   2.602   2.602
    90.00    2.602   2.602   2.602   2.602   2.602   2.602   2.602   2.602   2.602   2.602   2.602   2.602   2.602
    76.25    2.602   2.602   2.602   2.602   2.602   2.602   2.602   2.602   2.602   2.602   2.602   2.602   2.602
    62.50    2.602   2.602   2.602   2.602   2.602   2.602   2.602   2.602   2.602   2.602   2.602   2.602   2.602
    48.75    2.602   2.602   2.602   2.602   2.602   2.602   2.602   2.602   2.602   2.602   2.602   2.602   2.602
    35.00    2.602   2.602   2.602   2.602   2.602   2.602   2.602   2.602   2.602   2.602   2.602   2.602   2.602
    21.25    2.602   2.602   2.602   2.602   2.602   2.602   2.602   2.602   2.602   2.602   2.602   2.602   2.602
     7.50    2.602   2.602   2.602   2.602   2.602   2.602   2.602   2.602   2.602   2.602   2.602   2.602   2.602

   Height   Standard deviation at grid points for the w component:
   172.50    1.593   1.593   1.593   1.593   1.593   1.593   1.593   1.593   1.593   1.593   1.593   1.593   1.593
   158.75    1.593   1.593   1.593   1.593   1.593   1.593   1.593   1.593   1.593   1.593   1.593   1.593   1.593
   145.00    1.593   1.593   1.593   1.593   1.593   1.593   1.593   1.593   1.593   1.593   1.593   1.593   1.593
   131.25    1.593   1.593   1.593   1.593   1.593   1.593   1.593   1.593   1.593   1.593   1.593   1.593   1.593
   117.50    1.593   1.593   1.593   1.593   1.593   1.593   1.593   1.593   1.593   1.593   1.593   1.593   1.593
   103.75    1.593   1.593   1.593   1.593   1.593   1.593   1.593   1.593   1.593   1.593   1.593   1.593   1.593
    90.00    1.593   1.593   1.593   1.593   1.593   1.593   1.593   1.593   1.593   1.593   1.593   1.593   1.593
    76.25    1.593   1.593   1.593   1.593   1.593   1.593   1.593   1.593   1.593   1.593   1.593   1.593   1.593
    62.50    1.593   1.593   1.593   1.593   1.593   1.593   1.593   1.593   1.593   1.593   1.593   1.593   1.593
    48.75    1.593   1.593   1.593   1.593   1.593   1.593   1.593   1.593   1.593   1.593   1.593   1.593   1.593
    35.00    1.593   1.593   1.593   1.593   1.593   1.593   1.593   1.593   1.593   1.593   1.593   1.593   1.593
    21.25    1.593   1.593   1.593   1.593   1.593   1.593   1.593   1.593   1.593   1.593   1.593   1.593   1.593
     7.50    1.593   1.593   1.593   1.593   1.593   1.593   1.593   1.593   1.593   1.593   1.593   1.593   1.593

   Mean standard deviation across all grid points:
      u component:    3.333 m/s
      v component:    2.602 m/s
      w component:    1.593 m/s


U-component (X) statistics from the interpolated hub point:

   Mean =  30.0000 m/s
   TI   =  11.4612 %


Processing complete.  17.359 CPU seconds used.
