
This summary file was generated by TurbSim (v2.00.07a-bjj, 14-Jun-2016) on 23-Mar-2020 at 10:26:43.


Runtime Options:

        41  Random seed #1
        42  Random seed #2
         F  Output binary HH turbulence parameters?
         F  Output formatted turbulence parameters?
         F  Output AeroDyn HH files?
         T  Output AeroDyn FF files?
         F  Output BLADED FF files?
         F  Output tower data?
         F  Output formatted FF files?
         F  Output coherent turbulence time step file?
         T  Clockwise rotation when looking downwind?
 0 -  NONE  IEC turbulence models scaled to exact specified standard deviation


Turbine/Model Specifications:

        13  Vertical grid-point matrix dimension
        13  Horizontal grid-point matrix dimension
     0.050  Time step [seconds]
  3630.000  Analysis time [seconds]
  3630.000  Usable output time [seconds]
    90.000  Hub height [m]
   165.000  Grid height [m]
   165.000  Grid width [m]
     0.000  Vertical flow angle [degrees]
     0.000  Horizontal flow angle [degrees]


Meteorological Boundary Conditions:

    IECKAI  IEC Kaimal spectral model
         3  IEC standard: IEC 61400-3 Ed. 1: 2006
    11.000  Percent turbulence intensity, IEC 61400-3 Ed. 1: 2006
       NTM  IEC Normal Turbulence Model
       N/A  IEC Extreme Turbulence Model (ETM) "c" parameter [m/s]
       IEC  Wind profile type
    90.000  Reference height [m]
    90.000  Reference wind speed [m/s]
       N/A  Jet height [m]
     0.140  Power law exponent
     0.030  Surface roughness length [m]


Non-IEC Meteorological Boundary Conditions:

       N/A  Site latitude [degrees]
       N/A  Gradient Richardson number
       N/A  Friction or shear velocity [m/s]
       N/A  Mixing layer depth [m]
       N/A  Mean hub u'w' Reynolds stress
       N/A  Mean hub u'v' Reynolds stress
       N/A  Mean hub v'w' Reynolds stress


Spatial Coherence Models:

       IEC  u-component coherence model
      NONE  v-component coherence model
      NONE  w-component coherence model
(   12.000, 0.353E-03)  u-component coherence parameters
                   N/A  v-component coherence parameters
                   N/A  w-component coherence parameters
       N/A  Coherence exponent


You have requested that the following file(s) be generated:

   4_90.bts (AeroDyn/TurbSim full-field wind file)


Turbulence Simulation Scaling Parameter Summary:

   Turbulence model used                            =  IEC Kaimal
   Turbulence characteristic                        =  User-specified
   IEC standard                                     =  IEC 61400-3 Ed. 1: 2006
   Mean wind speed at hub height                    =   90.000 m/s
   Characteristic value of standard deviation       =    9.900 m/s
   Turbulence scale                                 =   42.000 m
   u-component integral scale                       =  340.200 m
   Coherency scale                                  =  340.200 m
   Characteristic value of hub turbulence intensity =   11.000%
   Gradient Richardson number                       =    0.000

   Wind profile type                                =  Power law on rotor disk, logarithmic elsewhere
   Power law exponent                               =    0.140
   Mean shear across rotor disk                     =    0.212 (m/s)/m
   Assumed rotor diameter                           =  165.000 m
   Surface roughness length                         =    0.030 m

   Nyquist frequency of turbulent wind field        =   10.000 Hz

   Number of time steps in the FFT                  =    72600
   Number of time steps output                      =    72600
   Number of points simulated                       =      169


Mean Flow Angles:

   Vertical   =   0.0 degrees
   Horizontal =   0.0 degrees

Mean Wind Speed Profile:

   Height    Wind Speed   Horizontal Angle  Vertical Angle  U-comp (X)   V-comp (Y)   W-comp (Z)
     (m)        (m/s)         (degrees)       (degrees)       (m/s)        (m/s)        (m/s)   
   ------    ----------   ----------------  --------------  ----------   ----------   ----------
    172.5       98.58            0.00            0.00         98.58         0.00         0.00
    158.8       97.44            0.00            0.00         97.44         0.00         0.00
    145.0       96.21            0.00            0.00         96.21         0.00         0.00
    131.2       94.88            0.00            0.00         94.88         0.00         0.00
    117.5       93.42            0.00            0.00         93.42         0.00         0.00
    103.8       91.81            0.00            0.00         91.81         0.00         0.00
     90.0       90.00            0.00            0.00         90.00         0.00         0.00
     76.2       87.94            0.00            0.00         87.94         0.00         0.00
     62.5       85.52            0.00            0.00         85.52         0.00         0.00
     48.8       82.60            0.00            0.00         82.60         0.00         0.00
     35.0       78.85            0.00            0.00         78.85         0.00         0.00
     21.2       73.53            0.00            0.00         73.53         0.00         0.00
      7.5       63.56            0.00            0.00         63.56         0.00         0.00


Harvested Random Seeds after Generation of the Random Numbers:

   2110154368 Harvested seed # 1
    967694281 Harvested seed # 2


Hub-Height Simulated Turbulence Statistical Summary:

   Type of Wind        Min (m/s)   Mean (m/s)    Max (m/s)  Sigma (m/s)       TI (%)
   ----------------    ---------   ----------    ---------  -----------       ------
   Longitudinal (u)        52.34        90.00       130.26        9.963       11.070
   Lateral (v)            -33.96         0.00        33.94        7.694        8.549
   Vertical (w)           -18.24        -0.00        18.91        4.595        5.106
   U component             52.34        90.00       130.26        9.963       11.070
   V component            -33.96         0.00        33.94        7.694        8.549
   W component            -18.24        -0.00        18.91        4.595        5.106
   Horizontal (U&V)        52.98        90.33       130.62        9.924       10.986
   Total                   53.02        90.45       130.64        9.913       10.959

                       Min Reynolds     Mean Reynolds    Max Reynolds    Correlation
   Product             Stress (m/s)^2   Stress (m/s)^2   Stress (m/s)^2  Coefficient
   ----------------    --------------   --------------   --------------  -----------
   u'w'                   -413.425            -0.007           541.629        -0.000
   u'v'                   -664.367            -3.763           624.422        -0.049
   v'w'                   -324.224             0.211           281.042         0.006


   Friction Velocity (Ustar)  =      0.086 m/s
   Maximum Instantaneous TKE  =    863.159 (m/s)^2
   Maximum Instantaneous CTKE =    382.873 (m/s)^2


Grid Point Variance Summary:

   Y-coord  -82.50  -68.75  -55.00  -41.25  -27.50  -13.75    0.00   13.75   27.50   41.25   55.00   68.75   82.50

   Height   Standard deviation at grid points for the u component:
   172.50   10.011   9.818   9.896  10.064  10.098   9.958   9.831   9.859   9.752   9.754   9.783   9.666   9.588
   158.75    9.877   9.865   9.956   9.969   9.865   9.976   9.830   9.908   9.877   9.877   9.852   9.742   9.629
   145.00    9.777   9.870   9.999   9.921   9.785   9.792  10.031  10.030   9.880   9.884   9.941   9.967   9.794
   131.25    9.769   9.886   9.982   9.929   9.887   9.882   9.931   9.970   9.876   9.939   9.871   9.881   9.834
   117.50    9.734   9.953   9.924   9.977   9.960   9.832   9.928   9.959  10.011   9.868   9.808   9.719   9.626
   103.75    9.902  10.070   9.925   9.929  10.023   9.949  10.000   9.877   9.878   9.821   9.760   9.802   9.728
    90.00   10.117  10.064   9.999   9.897   9.845   9.751   9.963   9.966   9.822   9.917   9.758   9.759   9.765
    76.25    9.996  10.000  10.052   9.913   9.833   9.758   9.860   9.786   9.756   9.787   9.806   9.781   9.843
    62.50    9.948  10.049   9.812   9.824   9.808   9.788   9.707   9.833   9.756   9.788   9.827   9.701   9.884
    48.75    9.838   9.901   9.880   9.804   9.811   9.858   9.647   9.611   9.641   9.679   9.678   9.767   9.765
    35.00    9.811   9.757   9.801   9.749   9.749   9.805   9.699   9.747   9.756   9.645   9.578   9.637   9.751
    21.25    9.727   9.672   9.704   9.713   9.764   9.719   9.644   9.656   9.577   9.594   9.608   9.669   9.650
     7.50    9.756   9.629   9.765   9.866   9.732   9.868   9.633   9.562   9.511   9.476   9.581   9.545   9.529

   Height   Standard deviation at grid points for the v component:
   172.50    7.694   7.694   7.694   7.694   7.694   7.694   7.694   7.694   7.694   7.694   7.694   7.694   7.694
   158.75    7.694   7.694   7.694   7.694   7.694   7.694   7.694   7.694   7.694   7.694   7.694   7.694   7.694
   145.00    7.694   7.694   7.694   7.694   7.694   7.694   7.694   7.694   7.694   7.694   7.694   7.694   7.694
   131.25    7.694   7.694   7.694   7.694   7.694   7.694   7.694   7.694   7.694   7.694   7.694   7.694   7.694
   117.50    7.694   7.694   7.694   7.694   7.694   7.694   7.694   7.694   7.694   7.694   7.694   7.694   7.694
   103.75    7.694   7.694   7.694   7.694   7.694   7.694   7.694   7.694   7.694   7.694   7.694   7.694   7.694
    90.00    7.694   7.694   7.694   7.694   7.694   7.694   7.694   7.694   7.694   7.694   7.694   7.694   7.694
    76.25    7.694   7.694   7.694   7.694   7.694   7.694   7.694   7.694   7.694   7.694   7.694   7.694   7.694
    62.50    7.694   7.694   7.694   7.694   7.694   7.694   7.694   7.694   7.694   7.694   7.694   7.694   7.694
    48.75    7.694   7.694   7.694   7.694   7.694   7.694   7.694   7.694   7.694   7.694   7.694   7.694   7.694
    35.00    7.694   7.694   7.694   7.694   7.694   7.694   7.694   7.694   7.694   7.694   7.694   7.694   7.694
    21.25    7.694   7.694   7.694   7.694   7.694   7.694   7.694   7.694   7.694   7.694   7.694   7.694   7.694
     7.50    7.694   7.694   7.694   7.694   7.694   7.694   7.694   7.694   7.694   7.694   7.694   7.694   7.694

   Height   Standard deviation at grid points for the w component:
   172.50    4.595   4.595   4.595   4.595   4.595   4.595   4.595   4.595   4.595   4.595   4.595   4.595   4.595
   158.75    4.595   4.595   4.595   4.595   4.595   4.595   4.595   4.595   4.595   4.595   4.595   4.595   4.595
   145.00    4.595   4.595   4.595   4.595   4.595   4.595   4.595   4.595   4.595   4.595   4.595   4.595   4.595
   131.25    4.595   4.595   4.595   4.595   4.595   4.595   4.595   4.595   4.595   4.595   4.595   4.595   4.595
   117.50    4.595   4.595   4.595   4.595   4.595   4.595   4.595   4.595   4.595   4.595   4.595   4.595   4.595
   103.75    4.595   4.595   4.595   4.595   4.595   4.595   4.595   4.595   4.595   4.595   4.595   4.595   4.595
    90.00    4.595   4.595   4.595   4.595   4.595   4.595   4.595   4.595   4.595   4.595   4.595   4.595   4.595
    76.25    4.595   4.595   4.595   4.595   4.595   4.595   4.595   4.595   4.595   4.595   4.595   4.595   4.595
    62.50    4.595   4.595   4.595   4.595   4.595   4.595   4.595   4.595   4.595   4.595   4.595   4.595   4.595
    48.75    4.595   4.595   4.595   4.595   4.595   4.595   4.595   4.595   4.595   4.595   4.595   4.595   4.595
    35.00    4.595   4.595   4.595   4.595   4.595   4.595   4.595   4.595   4.595   4.595   4.595   4.595   4.595
    21.25    4.595   4.595   4.595   4.595   4.595   4.595   4.595   4.595   4.595   4.595   4.595   4.595   4.595
     7.50    4.595   4.595   4.595   4.595   4.595   4.595   4.595   4.595   4.595   4.595   4.595   4.595   4.595

   Mean standard deviation across all grid points:
      u component:    9.820 m/s
      v component:    7.694 m/s
      w component:    4.595 m/s


U-component (X) statistics from the interpolated hub point:

   Mean =  90.0000 m/s
   TI   =  11.0705 %


Processing complete.  16.672 CPU seconds used.
