
This summary file was generated by TurbSim (v2.00.07a-bjj, 14-Jun-2016) on 23-Mar-2020 at 10:27:58.


Runtime Options:

        41  Random seed #1
        42  Random seed #2
         F  Output binary HH turbulence parameters?
         F  Output formatted turbulence parameters?
         F  Output AeroDyn HH files?
         T  Output AeroDyn FF files?
         F  Output BLADED FF files?
         F  Output tower data?
         F  Output formatted FF files?
         F  Output coherent turbulence time step file?
         T  Clockwise rotation when looking downwind?
 0 -  NONE  IEC turbulence models scaled to exact specified standard deviation


Turbine/Model Specifications:

        13  Vertical grid-point matrix dimension
        13  Horizontal grid-point matrix dimension
     0.050  Time step [seconds]
  3630.000  Analysis time [seconds]
  3630.000  Usable output time [seconds]
    90.000  Hub height [m]
   165.000  Grid height [m]
   165.000  Grid width [m]
     0.000  Vertical flow angle [degrees]
     0.000  Horizontal flow angle [degrees]


Meteorological Boundary Conditions:

    IECKAI  IEC Kaimal spectral model
         3  IEC standard: IEC 61400-3 Ed. 1: 2006
    11.000  Percent turbulence intensity, IEC 61400-3 Ed. 1: 2006
       NTM  IEC Normal Turbulence Model
       N/A  IEC Extreme Turbulence Model (ETM) "c" parameter [m/s]
       IEC  Wind profile type
    90.000  Reference height [m]
   100.000  Reference wind speed [m/s]
       N/A  Jet height [m]
     0.140  Power law exponent
     0.030  Surface roughness length [m]


Non-IEC Meteorological Boundary Conditions:

       N/A  Site latitude [degrees]
       N/A  Gradient Richardson number
       N/A  Friction or shear velocity [m/s]
       N/A  Mixing layer depth [m]
       N/A  Mean hub u'w' Reynolds stress
       N/A  Mean hub u'v' Reynolds stress
       N/A  Mean hub v'w' Reynolds stress


Spatial Coherence Models:

       IEC  u-component coherence model
      NONE  v-component coherence model
      NONE  w-component coherence model
(   12.000, 0.353E-03)  u-component coherence parameters
                   N/A  v-component coherence parameters
                   N/A  w-component coherence parameters
       N/A  Coherence exponent


You have requested that the following file(s) be generated:

   4_100.bts (AeroDyn/TurbSim full-field wind file)


Turbulence Simulation Scaling Parameter Summary:

   Turbulence model used                            =  IEC Kaimal
   Turbulence characteristic                        =  User-specified
   IEC standard                                     =  IEC 61400-3 Ed. 1: 2006
   Mean wind speed at hub height                    =  100.000 m/s
   Characteristic value of standard deviation       =   11.000 m/s
   Turbulence scale                                 =   42.000 m
   u-component integral scale                       =  340.200 m
   Coherency scale                                  =  340.200 m
   Characteristic value of hub turbulence intensity =   11.000%
   Gradient Richardson number                       =    0.000

   Wind profile type                                =  Power law on rotor disk, logarithmic elsewhere
   Power law exponent                               =    0.140
   Mean shear across rotor disk                     =    0.236 (m/s)/m
   Assumed rotor diameter                           =  165.000 m
   Surface roughness length                         =    0.030 m

   Nyquist frequency of turbulent wind field        =   10.000 Hz

   Number of time steps in the FFT                  =    72600
   Number of time steps output                      =    72600
   Number of points simulated                       =      169


Mean Flow Angles:

   Vertical   =   0.0 degrees
   Horizontal =   0.0 degrees

Mean Wind Speed Profile:

   Height    Wind Speed   Horizontal Angle  Vertical Angle  U-comp (X)   V-comp (Y)   W-comp (Z)
     (m)        (m/s)         (degrees)       (degrees)       (m/s)        (m/s)        (m/s)   
   ------    ----------   ----------------  --------------  ----------   ----------   ----------
    172.5      109.54            0.00            0.00        109.54         0.00         0.00
    158.8      108.27            0.00            0.00        108.27         0.00         0.00
    145.0      106.90            0.00            0.00        106.90         0.00         0.00
    131.2      105.42            0.00            0.00        105.42         0.00         0.00
    117.5      103.80            0.00            0.00        103.80         0.00         0.00
    103.8      102.01            0.00            0.00        102.01         0.00         0.00
     90.0      100.00            0.00            0.00        100.00         0.00         0.00
     76.2       97.71            0.00            0.00         97.71         0.00         0.00
     62.5       95.02            0.00            0.00         95.02         0.00         0.00
     48.8       91.77            0.00            0.00         91.77         0.00         0.00
     35.0       87.61            0.00            0.00         87.61         0.00         0.00
     21.2       81.70            0.00            0.00         81.70         0.00         0.00
      7.5       70.62            0.00            0.00         70.62         0.00         0.00


Harvested Random Seeds after Generation of the Random Numbers:

   2110154368 Harvested seed # 1
    967694281 Harvested seed # 2


Hub-Height Simulated Turbulence Statistical Summary:

   Type of Wind        Min (m/s)   Mean (m/s)    Max (m/s)  Sigma (m/s)       TI (%)
   ----------------    ---------   ----------    ---------  -----------       ------
   Longitudinal (u)        58.13       100.00       145.08       11.045       11.045
   Lateral (v)            -37.54         0.00        37.92        8.532        8.532
   Vertical (w)           -20.18        -0.00        20.95        5.077        5.077
   U component             58.13       100.00       145.08       11.045       11.045
   V component            -37.54         0.00        37.92        8.532        8.532
   W component            -20.18        -0.00        20.95        5.077        5.077
   Horizontal (U&V)        58.84       100.37       145.26       11.002       10.962
   Total                   58.88       100.50       145.26       10.989       10.935

                       Min Reynolds     Mean Reynolds    Max Reynolds    Correlation
   Product             Stress (m/s)^2   Stress (m/s)^2   Stress (m/s)^2  Coefficient
   ----------------    --------------   --------------   --------------  -----------
   u'w'                   -509.805            -0.013           656.598        -0.000
   u'v'                   -830.019            -4.262           763.988        -0.045
   v'w'                   -395.555             0.222           343.487         0.005


   Friction Velocity (Ustar)  =      0.114 m/s
   Maximum Instantaneous TKE  =   1045.908 (m/s)^2
   Maximum Instantaneous CTKE =    468.276 (m/s)^2


Grid Point Variance Summary:

   Y-coord  -82.50  -68.75  -55.00  -41.25  -27.50  -13.75    0.00   13.75   27.50   41.25   55.00   68.75   82.50

   Height   Standard deviation at grid points for the u component:
   172.50   11.097  10.889  10.973  11.148  11.183  11.036  10.906  10.928  10.816  10.830  10.861  10.738  10.654
   158.75   10.953  10.947  11.042  11.057  10.943  11.061  10.905  10.989  10.952  10.952  10.925  10.815  10.703
   145.00   10.847  10.949  11.083  11.001  10.863  10.865  11.121  11.124  10.960  10.957  11.016  11.052  10.867
   131.25   10.840  10.965  11.061  11.009  10.966  10.961  11.018  11.052  10.952  11.012  10.938  10.953  10.910
   117.50   10.813  11.035  11.002  11.065  11.044  10.914  11.020  11.045  11.091  10.949  10.881  10.785  10.685
   103.75   10.994  11.161  11.005  11.012  11.111  11.033  11.093  10.958  10.961  10.896  10.834  10.874  10.796
    90.00   11.217  11.161  11.095  10.990  10.929  10.824  11.045  11.049  10.900  10.997  10.828  10.827  10.832
    76.25   11.091  11.089  11.144  10.995  10.905  10.836  10.943  10.863  10.830  10.862  10.876  10.852  10.917
    62.50   11.035  11.140  10.890  10.900  10.887  10.867  10.783  10.918  10.833  10.866  10.906  10.764  10.958
    48.75   10.915  10.976  10.953  10.881  10.891  10.941  10.718  10.680  10.713  10.750  10.749  10.831  10.822
    35.00   10.881  10.826  10.874  10.822  10.826  10.886  10.770  10.837  10.843  10.723  10.649  10.698  10.812
    21.25   10.794  10.734  10.765  10.780  10.841  10.800  10.722  10.733  10.652  10.669  10.681  10.738  10.710
     7.50   10.830  10.692  10.829  10.937  10.804  10.956  10.712  10.633  10.573  10.540  10.656  10.610  10.590

   Height   Standard deviation at grid points for the v component:
   172.50    8.532   8.532   8.532   8.532   8.532   8.532   8.532   8.532   8.532   8.532   8.532   8.532   8.532
   158.75    8.532   8.532   8.532   8.532   8.532   8.532   8.532   8.532   8.532   8.532   8.532   8.532   8.532
   145.00    8.532   8.532   8.532   8.532   8.532   8.532   8.532   8.532   8.532   8.532   8.532   8.532   8.532
   131.25    8.532   8.532   8.532   8.532   8.532   8.532   8.532   8.532   8.532   8.532   8.532   8.532   8.532
   117.50    8.532   8.532   8.532   8.532   8.532   8.532   8.532   8.532   8.532   8.532   8.532   8.532   8.532
   103.75    8.532   8.532   8.532   8.532   8.532   8.532   8.532   8.532   8.532   8.532   8.532   8.532   8.532
    90.00    8.532   8.532   8.532   8.532   8.532   8.532   8.532   8.532   8.532   8.532   8.532   8.532   8.532
    76.25    8.532   8.532   8.532   8.532   8.532   8.532   8.532   8.532   8.532   8.532   8.532   8.532   8.532
    62.50    8.532   8.532   8.532   8.532   8.532   8.532   8.532   8.532   8.532   8.532   8.532   8.532   8.532
    48.75    8.532   8.532   8.532   8.532   8.532   8.532   8.532   8.532   8.532   8.532   8.532   8.532   8.532
    35.00    8.532   8.532   8.532   8.532   8.532   8.532   8.532   8.532   8.532   8.532   8.532   8.532   8.532
    21.25    8.532   8.532   8.532   8.532   8.532   8.532   8.532   8.532   8.532   8.532   8.532   8.532   8.532
     7.50    8.532   8.532   8.532   8.532   8.532   8.532   8.532   8.532   8.532   8.532   8.532   8.532   8.532

   Height   Standard deviation at grid points for the w component:
   172.50    5.077   5.077   5.077   5.077   5.077   5.077   5.077   5.077   5.077   5.077   5.077   5.077   5.077
   158.75    5.077   5.077   5.077   5.077   5.077   5.077   5.077   5.077   5.077   5.077   5.077   5.077   5.077
   145.00    5.077   5.077   5.077   5.077   5.077   5.077   5.077   5.077   5.077   5.077   5.077   5.077   5.077
   131.25    5.077   5.077   5.077   5.077   5.077   5.077   5.077   5.077   5.077   5.077   5.077   5.077   5.077
   117.50    5.077   5.077   5.077   5.077   5.077   5.077   5.077   5.077   5.077   5.077   5.077   5.077   5.077
   103.75    5.077   5.077   5.077   5.077   5.077   5.077   5.077   5.077   5.077   5.077   5.077   5.077   5.077
    90.00    5.077   5.077   5.077   5.077   5.077   5.077   5.077   5.077   5.077   5.077   5.077   5.077   5.077
    76.25    5.077   5.077   5.077   5.077   5.077   5.077   5.077   5.077   5.077   5.077   5.077   5.077   5.077
    62.50    5.077   5.077   5.077   5.077   5.077   5.077   5.077   5.077   5.077   5.077   5.077   5.077   5.077
    48.75    5.077   5.077   5.077   5.077   5.077   5.077   5.077   5.077   5.077   5.077   5.077   5.077   5.077
    35.00    5.077   5.077   5.077   5.077   5.077   5.077   5.077   5.077   5.077   5.077   5.077   5.077   5.077
    21.25    5.077   5.077   5.077   5.077   5.077   5.077   5.077   5.077   5.077   5.077   5.077   5.077   5.077
     7.50    5.077   5.077   5.077   5.077   5.077   5.077   5.077   5.077   5.077   5.077   5.077   5.077   5.077

   Mean standard deviation across all grid points:
      u component:   10.897 m/s
      v component:    8.532 m/s
      w component:    5.077 m/s


U-component (X) statistics from the interpolated hub point:

   Mean = 100.0000 m/s
   TI   =  11.0451 %


Processing complete.  15.844 CPU seconds used.
