
This summary file was generated by TurbSim (v2.00.07a-bjj, 14-Jun-2016) on 23-Mar-2020 at 10:21:44.


Runtime Options:

        41  Random seed #1
        42  Random seed #2
         F  Output binary HH turbulence parameters?
         F  Output formatted turbulence parameters?
         F  Output AeroDyn HH files?
         T  Output AeroDyn FF files?
         F  Output BLADED FF files?
         F  Output tower data?
         F  Output formatted FF files?
         F  Output coherent turbulence time step file?
         T  Clockwise rotation when looking downwind?
 0 -  NONE  IEC turbulence models scaled to exact specified standard deviation


Turbine/Model Specifications:

        13  Vertical grid-point matrix dimension
        13  Horizontal grid-point matrix dimension
     0.050  Time step [seconds]
  3630.000  Analysis time [seconds]
  3630.000  Usable output time [seconds]
    90.000  Hub height [m]
   165.000  Grid height [m]
   165.000  Grid width [m]
     0.000  Vertical flow angle [degrees]
     0.000  Horizontal flow angle [degrees]


Meteorological Boundary Conditions:

    IECKAI  IEC Kaimal spectral model
         3  IEC standard: IEC 61400-3 Ed. 1: 2006
    11.000  Percent turbulence intensity, IEC 61400-3 Ed. 1: 2006
       NTM  IEC Normal Turbulence Model
       N/A  IEC Extreme Turbulence Model (ETM) "c" parameter [m/s]
       IEC  Wind profile type
    90.000  Reference height [m]
    45.000  Reference wind speed [m/s]
       N/A  Jet height [m]
     0.140  Power law exponent
     0.030  Surface roughness length [m]


Non-IEC Meteorological Boundary Conditions:

       N/A  Site latitude [degrees]
       N/A  Gradient Richardson number
       N/A  Friction or shear velocity [m/s]
       N/A  Mixing layer depth [m]
       N/A  Mean hub u'w' Reynolds stress
       N/A  Mean hub u'v' Reynolds stress
       N/A  Mean hub v'w' Reynolds stress


Spatial Coherence Models:

       IEC  u-component coherence model
      NONE  v-component coherence model
      NONE  w-component coherence model
(   12.000, 0.353E-03)  u-component coherence parameters
                   N/A  v-component coherence parameters
                   N/A  w-component coherence parameters
       N/A  Coherence exponent


You have requested that the following file(s) be generated:

   4_45.bts (AeroDyn/TurbSim full-field wind file)


Turbulence Simulation Scaling Parameter Summary:

   Turbulence model used                            =  IEC Kaimal
   Turbulence characteristic                        =  User-specified
   IEC standard                                     =  IEC 61400-3 Ed. 1: 2006
   Mean wind speed at hub height                    =   45.000 m/s
   Characteristic value of standard deviation       =    4.950 m/s
   Turbulence scale                                 =   42.000 m
   u-component integral scale                       =  340.200 m
   Coherency scale                                  =  340.200 m
   Characteristic value of hub turbulence intensity =   11.000%
   Gradient Richardson number                       =    0.000

   Wind profile type                                =  Power law on rotor disk, logarithmic elsewhere
   Power law exponent                               =    0.140
   Mean shear across rotor disk                     =    0.106 (m/s)/m
   Assumed rotor diameter                           =  165.000 m
   Surface roughness length                         =    0.030 m

   Nyquist frequency of turbulent wind field        =   10.000 Hz

   Number of time steps in the FFT                  =    72600
   Number of time steps output                      =    72600
   Number of points simulated                       =      169


Mean Flow Angles:

   Vertical   =   0.0 degrees
   Horizontal =   0.0 degrees

Mean Wind Speed Profile:

   Height    Wind Speed   Horizontal Angle  Vertical Angle  U-comp (X)   V-comp (Y)   W-comp (Z)
     (m)        (m/s)         (degrees)       (degrees)       (m/s)        (m/s)        (m/s)   
   ------    ----------   ----------------  --------------  ----------   ----------   ----------
    172.5       49.29            0.00            0.00         49.29         0.00         0.00
    158.8       48.72            0.00            0.00         48.72         0.00         0.00
    145.0       48.11            0.00            0.00         48.11         0.00         0.00
    131.2       47.44            0.00            0.00         47.44         0.00         0.00
    117.5       46.71            0.00            0.00         46.71         0.00         0.00
    103.8       45.90            0.00            0.00         45.90         0.00         0.00
     90.0       45.00            0.00            0.00         45.00         0.00         0.00
     76.2       43.97            0.00            0.00         43.97         0.00         0.00
     62.5       42.76            0.00            0.00         42.76         0.00         0.00
     48.8       41.30            0.00            0.00         41.30         0.00         0.00
     35.0       39.43            0.00            0.00         39.43         0.00         0.00
     21.2       36.77            0.00            0.00         36.77         0.00         0.00
      7.5       31.78            0.00            0.00         31.78         0.00         0.00


Harvested Random Seeds after Generation of the Random Numbers:

   2110154368 Harvested seed # 1
    967694281 Harvested seed # 2


Hub-Height Simulated Turbulence Statistical Summary:

   Type of Wind        Min (m/s)   Mean (m/s)    Max (m/s)  Sigma (m/s)       TI (%)
   ----------------    ---------   ----------    ---------  -----------       ------
   Longitudinal (u)        26.67        45.00        65.49        5.076       11.281
   Lateral (v)            -17.24         0.00        15.99        3.887        8.638
   Vertical (w)            -9.29        -0.00         9.96        2.362        5.250
   U component             26.67        45.00        65.49        5.076       11.281
   V component            -17.24         0.00        15.99        3.887        8.638
   W component             -9.29        -0.00         9.96        2.362        5.250
   Horizontal (U&V)        27.09        45.17        65.68        5.056       11.193
   Total                   27.19        45.23        65.69        5.050       11.166

                       Min Reynolds     Mean Reynolds    Max Reynolds    Correlation
   Product             Stress (m/s)^2   Stress (m/s)^2   Stress (m/s)^2  Coefficient
   ----------------    --------------   --------------   --------------  -----------
   u'w'                    -95.807            -0.018           140.546        -0.001
   u'v'                   -164.721            -1.521           146.570        -0.077
   v'w'                    -82.049             0.119            72.578         0.013


   Friction Velocity (Ustar)  =      0.133 m/s
   Maximum Instantaneous TKE  =    223.315 (m/s)^2
   Maximum Instantaneous CTKE =     87.205 (m/s)^2


Grid Point Variance Summary:

   Y-coord  -82.50  -68.75  -55.00  -41.25  -27.50  -13.75    0.00   13.75   27.50   41.25   55.00   68.75   82.50

   Height   Standard deviation at grid points for the u component:
   172.50    5.089   4.980   5.027   5.161   5.181   5.091   4.997   5.039   4.950   4.900   4.914   4.838   4.803
   158.75    5.005   4.974   5.044   5.051   5.008   5.090   4.996   5.036   5.028   5.025   5.003   4.909   4.817
   145.00    4.940   4.991   5.090   5.046   4.944   4.975   5.110   5.093   5.015   5.035   5.075   5.062   4.960
   131.25    4.925   4.992   5.091   5.049   5.025   5.031   5.041   5.097   5.034   5.094   5.044   5.044   4.992
   117.50    4.857   5.036   5.044   5.066   5.070   4.962   5.024   5.073   5.141   5.020   4.986   4.937   4.879
   103.75    4.947   5.115   5.031   5.036   5.096   5.054   5.071   5.015   5.010   4.977   4.931   4.981   4.925
    90.00    5.115   5.086   5.045   4.970   4.959   4.910   5.076   5.079   4.967   5.037   4.942   4.960   4.961
    76.25    5.028   5.058   5.093   5.022   4.978   4.883   4.951   4.926   4.917   4.945   4.978   4.959   5.000
    62.50    5.013   5.096   4.925   4.961   4.917   4.905   4.831   4.931   4.910   4.932   4.965   4.911   5.031
    48.75    4.957   5.020   5.019   4.928   4.919   4.948   4.810   4.795   4.817   4.856   4.857   4.969   5.000
    35.00    4.958   4.915   4.939   4.889   4.890   4.926   4.857   4.837   4.847   4.772   4.768   4.868   4.966
    21.25    4.906   4.868   4.901   4.883   4.895   4.844   4.785   4.808   4.733   4.742   4.780   4.860   4.881
     7.50    4.898   4.830   4.947   5.001   4.884   4.946   4.780   4.753   4.730   4.699   4.765   4.782   4.782

   Height   Standard deviation at grid points for the v component:
   172.50    3.887   3.887   3.887   3.887   3.887   3.887   3.887   3.887   3.887   3.887   3.887   3.887   3.887
   158.75    3.887   3.887   3.887   3.887   3.887   3.887   3.887   3.887   3.887   3.887   3.887   3.887   3.887
   145.00    3.887   3.887   3.887   3.887   3.887   3.887   3.887   3.887   3.887   3.887   3.887   3.887   3.887
   131.25    3.887   3.887   3.887   3.887   3.887   3.887   3.887   3.887   3.887   3.887   3.887   3.887   3.887
   117.50    3.887   3.887   3.887   3.887   3.887   3.887   3.887   3.887   3.887   3.887   3.887   3.887   3.887
   103.75    3.887   3.887   3.887   3.887   3.887   3.887   3.887   3.887   3.887   3.887   3.887   3.887   3.887
    90.00    3.887   3.887   3.887   3.887   3.887   3.887   3.887   3.887   3.887   3.887   3.887   3.887   3.887
    76.25    3.887   3.887   3.887   3.887   3.887   3.887   3.887   3.887   3.887   3.887   3.887   3.887   3.887
    62.50    3.887   3.887   3.887   3.887   3.887   3.887   3.887   3.887   3.887   3.887   3.887   3.887   3.887
    48.75    3.887   3.887   3.887   3.887   3.887   3.887   3.887   3.887   3.887   3.887   3.887   3.887   3.887
    35.00    3.887   3.887   3.887   3.887   3.887   3.887   3.887   3.887   3.887   3.887   3.887   3.887   3.887
    21.25    3.887   3.887   3.887   3.887   3.887   3.887   3.887   3.887   3.887   3.887   3.887   3.887   3.887
     7.50    3.887   3.887   3.887   3.887   3.887   3.887   3.887   3.887   3.887   3.887   3.887   3.887   3.887

   Height   Standard deviation at grid points for the w component:
   172.50    2.362   2.362   2.362   2.362   2.362   2.362   2.362   2.362   2.362   2.362   2.362   2.362   2.362
   158.75    2.362   2.362   2.362   2.362   2.362   2.362   2.362   2.362   2.362   2.362   2.362   2.362   2.362
   145.00    2.362   2.362   2.362   2.362   2.362   2.362   2.362   2.362   2.362   2.362   2.362   2.362   2.362
   131.25    2.362   2.362   2.362   2.362   2.362   2.362   2.362   2.362   2.362   2.362   2.362   2.362   2.362
   117.50    2.362   2.362   2.362   2.362   2.362   2.362   2.362   2.362   2.362   2.362   2.362   2.362   2.362
   103.75    2.362   2.362   2.362   2.362   2.362   2.362   2.362   2.362   2.362   2.362   2.362   2.362   2.362
    90.00    2.362   2.362   2.362   2.362   2.362   2.362   2.362   2.362   2.362   2.362   2.362   2.362   2.362
    76.25    2.362   2.362   2.362   2.362   2.362   2.362   2.362   2.362   2.362   2.362   2.362   2.362   2.362
    62.50    2.362   2.362   2.362   2.362   2.362   2.362   2.362   2.362   2.362   2.362   2.362   2.362   2.362
    48.75    2.362   2.362   2.362   2.362   2.362   2.362   2.362   2.362   2.362   2.362   2.362   2.362   2.362
    35.00    2.362   2.362   2.362   2.362   2.362   2.362   2.362   2.362   2.362   2.362   2.362   2.362   2.362
    21.25    2.362   2.362   2.362   2.362   2.362   2.362   2.362   2.362   2.362   2.362   2.362   2.362   2.362
     7.50    2.362   2.362   2.362   2.362   2.362   2.362   2.362   2.362   2.362   2.362   2.362   2.362   2.362

   Mean standard deviation across all grid points:
      u component:    4.960 m/s
      v component:    3.887 m/s
      w component:    2.362 m/s


U-component (X) statistics from the interpolated hub point:

   Mean =  45.0000 m/s
   TI   =  11.2805 %


Processing complete.  16.359 CPU seconds used.
