
This summary file was generated by TurbSim (v2.00.07a-bjj, 14-Jun-2016) on 23-Mar-2020 at 10:25:05.


Runtime Options:

        41  Random seed #1
        42  Random seed #2
         F  Output binary HH turbulence parameters?
         F  Output formatted turbulence parameters?
         F  Output AeroDyn HH files?
         T  Output AeroDyn FF files?
         F  Output BLADED FF files?
         F  Output tower data?
         F  Output formatted FF files?
         F  Output coherent turbulence time step file?
         T  Clockwise rotation when looking downwind?
 0 -  NONE  IEC turbulence models scaled to exact specified standard deviation


Turbine/Model Specifications:

        13  Vertical grid-point matrix dimension
        13  Horizontal grid-point matrix dimension
     0.050  Time step [seconds]
  3630.000  Analysis time [seconds]
  3630.000  Usable output time [seconds]
    90.000  Hub height [m]
   165.000  Grid height [m]
   165.000  Grid width [m]
     0.000  Vertical flow angle [degrees]
     0.000  Horizontal flow angle [degrees]


Meteorological Boundary Conditions:

    IECKAI  IEC Kaimal spectral model
         3  IEC standard: IEC 61400-3 Ed. 1: 2006
    11.000  Percent turbulence intensity, IEC 61400-3 Ed. 1: 2006
       NTM  IEC Normal Turbulence Model
       N/A  IEC Extreme Turbulence Model (ETM) "c" parameter [m/s]
       IEC  Wind profile type
    90.000  Reference height [m]
    70.000  Reference wind speed [m/s]
       N/A  Jet height [m]
     0.140  Power law exponent
     0.030  Surface roughness length [m]


Non-IEC Meteorological Boundary Conditions:

       N/A  Site latitude [degrees]
       N/A  Gradient Richardson number
       N/A  Friction or shear velocity [m/s]
       N/A  Mixing layer depth [m]
       N/A  Mean hub u'w' Reynolds stress
       N/A  Mean hub u'v' Reynolds stress
       N/A  Mean hub v'w' Reynolds stress


Spatial Coherence Models:

       IEC  u-component coherence model
      NONE  v-component coherence model
      NONE  w-component coherence model
(   12.000, 0.353E-03)  u-component coherence parameters
                   N/A  v-component coherence parameters
                   N/A  w-component coherence parameters
       N/A  Coherence exponent


You have requested that the following file(s) be generated:

   4_70.bts (AeroDyn/TurbSim full-field wind file)


Turbulence Simulation Scaling Parameter Summary:

   Turbulence model used                            =  IEC Kaimal
   Turbulence characteristic                        =  User-specified
   IEC standard                                     =  IEC 61400-3 Ed. 1: 2006
   Mean wind speed at hub height                    =   70.000 m/s
   Characteristic value of standard deviation       =    7.700 m/s
   Turbulence scale                                 =   42.000 m
   u-component integral scale                       =  340.200 m
   Coherency scale                                  =  340.200 m
   Characteristic value of hub turbulence intensity =   11.000%
   Gradient Richardson number                       =    0.000

   Wind profile type                                =  Power law on rotor disk, logarithmic elsewhere
   Power law exponent                               =    0.140
   Mean shear across rotor disk                     =    0.165 (m/s)/m
   Assumed rotor diameter                           =  165.000 m
   Surface roughness length                         =    0.030 m

   Nyquist frequency of turbulent wind field        =   10.000 Hz

   Number of time steps in the FFT                  =    72600
   Number of time steps output                      =    72600
   Number of points simulated                       =      169


Mean Flow Angles:

   Vertical   =   0.0 degrees
   Horizontal =   0.0 degrees

Mean Wind Speed Profile:

   Height    Wind Speed   Horizontal Angle  Vertical Angle  U-comp (X)   V-comp (Y)   W-comp (Z)
     (m)        (m/s)         (degrees)       (degrees)       (m/s)        (m/s)        (m/s)   
   ------    ----------   ----------------  --------------  ----------   ----------   ----------
    172.5       76.68            0.00            0.00         76.68         0.00         0.00
    158.8       75.79            0.00            0.00         75.79         0.00         0.00
    145.0       74.83            0.00            0.00         74.83         0.00         0.00
    131.2       73.80            0.00            0.00         73.80         0.00         0.00
    117.5       72.66            0.00            0.00         72.66         0.00         0.00
    103.8       71.41            0.00            0.00         71.41         0.00         0.00
     90.0       70.00            0.00            0.00         70.00         0.00         0.00
     76.2       68.39            0.00            0.00         68.39         0.00         0.00
     62.5       66.52            0.00            0.00         66.52         0.00         0.00
     48.8       64.24            0.00            0.00         64.24         0.00         0.00
     35.0       61.33            0.00            0.00         61.33         0.00         0.00
     21.2       57.19            0.00            0.00         57.19         0.00         0.00
      7.5       49.43            0.00            0.00         49.43         0.00         0.00


Harvested Random Seeds after Generation of the Random Numbers:

   2110154368 Harvested seed # 1
    967694281 Harvested seed # 2


Hub-Height Simulated Turbulence Statistical Summary:

   Type of Wind        Min (m/s)   Mean (m/s)    Max (m/s)  Sigma (m/s)       TI (%)
   ----------------    ---------   ----------    ---------  -----------       ------
   Longitudinal (u)        41.10        70.00       101.81        7.795       11.136
   Lateral (v)            -26.66         0.00        25.95        6.011        8.587
   Vertical (w)           -14.30        -0.00        15.03        3.616        5.166
   U component             41.10        70.00       101.81        7.795       11.136
   V component            -26.66         0.00        25.95        6.011        8.587
   W component            -14.30        -0.00        15.03        3.616        5.166
   Horizontal (U&V)        41.61        70.26       102.11        7.764       11.050
   Total                   41.64        70.36       102.13        7.755       11.023

                       Min Reynolds     Mean Reynolds    Max Reynolds    Correlation
   Product             Stress (m/s)^2   Stress (m/s)^2   Stress (m/s)^2  Coefficient
   ----------------    --------------   --------------   --------------  -----------
   u'w'                   -247.286            -0.006           338.534        -0.000
   u'v'                   -401.800            -2.761           379.054        -0.059
   v'w'                   -199.610             0.178           173.173         0.008


   Friction Velocity (Ustar)  =      0.077 m/s
   Maximum Instantaneous TKE  =    538.500 (m/s)^2
   Maximum Instantaneous CTKE =    230.511 (m/s)^2


Grid Point Variance Summary:

   Y-coord  -82.50  -68.75  -55.00  -41.25  -27.50  -13.75    0.00   13.75   27.50   41.25   55.00   68.75   82.50

   Height   Standard deviation at grid points for the u component:
   172.50    7.831   7.672   7.738   7.892   7.921   7.799   7.681   7.719   7.621   7.598   7.622   7.519   7.458
   158.75    7.718   7.696   7.778   7.790   7.708   7.805   7.681   7.743   7.723   7.723   7.701   7.595   7.484
   145.00    7.631   7.707   7.824   7.759   7.630   7.648   7.847   7.839   7.719   7.734   7.786   7.793   7.647
   131.25    7.620   7.720   7.817   7.765   7.727   7.725   7.757   7.807   7.724   7.791   7.732   7.735   7.682
   117.50    7.570   7.778   7.760   7.797   7.788   7.665   7.745   7.786   7.850   7.709   7.662   7.590   7.513
   103.75    7.707   7.878   7.757   7.758   7.839   7.776   7.809   7.714   7.713   7.668   7.612   7.659   7.592
    90.00    7.904   7.860   7.800   7.708   7.674   7.600   7.795   7.797   7.664   7.752   7.617   7.624   7.631
    76.25    7.797   7.812   7.856   7.744   7.681   7.595   7.685   7.627   7.605   7.635   7.663   7.636   7.693
    62.50    7.762   7.857   7.646   7.666   7.642   7.623   7.545   7.656   7.601   7.631   7.666   7.572   7.731
    48.75    7.676   7.741   7.726   7.643   7.643   7.684   7.501   7.471   7.495   7.534   7.534   7.636   7.648
    35.00    7.663   7.611   7.647   7.595   7.591   7.639   7.551   7.565   7.576   7.482   7.436   7.516   7.628
    21.25    7.589   7.543   7.576   7.573   7.604   7.553   7.484   7.501   7.424   7.440   7.461   7.530   7.530
     7.50    7.602   7.499   7.631   7.714   7.583   7.685   7.475   7.421   7.385   7.349   7.434   7.421   7.413

   Height   Standard deviation at grid points for the v component:
   172.50    6.011   6.011   6.011   6.011   6.011   6.011   6.011   6.011   6.011   6.011   6.011   6.011   6.011
   158.75    6.011   6.011   6.011   6.011   6.011   6.011   6.011   6.011   6.011   6.011   6.011   6.011   6.011
   145.00    6.011   6.011   6.011   6.011   6.011   6.011   6.011   6.011   6.011   6.011   6.011   6.011   6.011
   131.25    6.011   6.011   6.011   6.011   6.011   6.011   6.011   6.011   6.011   6.011   6.011   6.011   6.011
   117.50    6.011   6.011   6.011   6.011   6.011   6.011   6.011   6.011   6.011   6.011   6.011   6.011   6.011
   103.75    6.011   6.011   6.011   6.011   6.011   6.011   6.011   6.011   6.011   6.011   6.011   6.011   6.011
    90.00    6.011   6.011   6.011   6.011   6.011   6.011   6.011   6.011   6.011   6.011   6.011   6.011   6.011
    76.25    6.011   6.011   6.011   6.011   6.011   6.011   6.011   6.011   6.011   6.011   6.011   6.011   6.011
    62.50    6.011   6.011   6.011   6.011   6.011   6.011   6.011   6.011   6.011   6.011   6.011   6.011   6.011
    48.75    6.011   6.011   6.011   6.011   6.011   6.011   6.011   6.011   6.011   6.011   6.011   6.011   6.011
    35.00    6.011   6.011   6.011   6.011   6.011   6.011   6.011   6.011   6.011   6.011   6.011   6.011   6.011
    21.25    6.011   6.011   6.011   6.011   6.011   6.011   6.011   6.011   6.011   6.011   6.011   6.011   6.011
     7.50    6.011   6.011   6.011   6.011   6.011   6.011   6.011   6.011   6.011   6.011   6.011   6.011   6.011

   Height   Standard deviation at grid points for the w component:
   172.50    3.616   3.616   3.616   3.616   3.616   3.616   3.616   3.616   3.616   3.616   3.616   3.616   3.616
   158.75    3.616   3.616   3.616   3.616   3.616   3.616   3.616   3.616   3.616   3.616   3.616   3.616   3.616
   145.00    3.616   3.616   3.616   3.616   3.616   3.616   3.616   3.616   3.616   3.616   3.616   3.616   3.616
   131.25    3.616   3.616   3.616   3.616   3.616   3.616   3.616   3.616   3.616   3.616   3.616   3.616   3.616
   117.50    3.616   3.616   3.616   3.616   3.616   3.616   3.616   3.616   3.616   3.616   3.616   3.616   3.616
   103.75    3.616   3.616   3.616   3.616   3.616   3.616   3.616   3.616   3.616   3.616   3.616   3.616   3.616
    90.00    3.616   3.616   3.616   3.616   3.616   3.616   3.616   3.616   3.616   3.616   3.616   3.616   3.616
    76.25    3.616   3.616   3.616   3.616   3.616   3.616   3.616   3.616   3.616   3.616   3.616   3.616   3.616
    62.50    3.616   3.616   3.616   3.616   3.616   3.616   3.616   3.616   3.616   3.616   3.616   3.616   3.616
    48.75    3.616   3.616   3.616   3.616   3.616   3.616   3.616   3.616   3.616   3.616   3.616   3.616   3.616
    35.00    3.616   3.616   3.616   3.616   3.616   3.616   3.616   3.616   3.616   3.616   3.616   3.616   3.616
    21.25    3.616   3.616   3.616   3.616   3.616   3.616   3.616   3.616   3.616   3.616   3.616   3.616   3.616
     7.50    3.616   3.616   3.616   3.616   3.616   3.616   3.616   3.616   3.616   3.616   3.616   3.616   3.616

   Mean standard deviation across all grid points:
      u component:    7.663 m/s
      v component:    6.011 m/s
      w component:    3.616 m/s


U-component (X) statistics from the interpolated hub point:

   Mean =  70.0000 m/s
   TI   =  11.1360 %


Processing complete.  16.297 CPU seconds used.
