
This summary file was generated by TurbSim (v2.00.07a-bjj, 14-Jun-2016) on 23-Mar-2020 at 10:26:11.


Runtime Options:

        41  Random seed #1
        42  Random seed #2
         F  Output binary HH turbulence parameters?
         F  Output formatted turbulence parameters?
         F  Output AeroDyn HH files?
         T  Output AeroDyn FF files?
         F  Output BLADED FF files?
         F  Output tower data?
         F  Output formatted FF files?
         F  Output coherent turbulence time step file?
         T  Clockwise rotation when looking downwind?
 0 -  NONE  IEC turbulence models scaled to exact specified standard deviation


Turbine/Model Specifications:

        13  Vertical grid-point matrix dimension
        13  Horizontal grid-point matrix dimension
     0.050  Time step [seconds]
  3630.000  Analysis time [seconds]
  3630.000  Usable output time [seconds]
    90.000  Hub height [m]
   165.000  Grid height [m]
   165.000  Grid width [m]
     0.000  Vertical flow angle [degrees]
     0.000  Horizontal flow angle [degrees]


Meteorological Boundary Conditions:

    IECKAI  IEC Kaimal spectral model
         3  IEC standard: IEC 61400-3 Ed. 1: 2006
    11.000  Percent turbulence intensity, IEC 61400-3 Ed. 1: 2006
       NTM  IEC Normal Turbulence Model
       N/A  IEC Extreme Turbulence Model (ETM) "c" parameter [m/s]
       IEC  Wind profile type
    90.000  Reference height [m]
    85.000  Reference wind speed [m/s]
       N/A  Jet height [m]
     0.140  Power law exponent
     0.030  Surface roughness length [m]


Non-IEC Meteorological Boundary Conditions:

       N/A  Site latitude [degrees]
       N/A  Gradient Richardson number
       N/A  Friction or shear velocity [m/s]
       N/A  Mixing layer depth [m]
       N/A  Mean hub u'w' Reynolds stress
       N/A  Mean hub u'v' Reynolds stress
       N/A  Mean hub v'w' Reynolds stress


Spatial Coherence Models:

       IEC  u-component coherence model
      NONE  v-component coherence model
      NONE  w-component coherence model
(   12.000, 0.353E-03)  u-component coherence parameters
                   N/A  v-component coherence parameters
                   N/A  w-component coherence parameters
       N/A  Coherence exponent


You have requested that the following file(s) be generated:

   4_85.bts (AeroDyn/TurbSim full-field wind file)


Turbulence Simulation Scaling Parameter Summary:

   Turbulence model used                            =  IEC Kaimal
   Turbulence characteristic                        =  User-specified
   IEC standard                                     =  IEC 61400-3 Ed. 1: 2006
   Mean wind speed at hub height                    =   85.000 m/s
   Characteristic value of standard deviation       =    9.350 m/s
   Turbulence scale                                 =   42.000 m
   u-component integral scale                       =  340.200 m
   Coherency scale                                  =  340.200 m
   Characteristic value of hub turbulence intensity =   11.000%
   Gradient Richardson number                       =    0.000

   Wind profile type                                =  Power law on rotor disk, logarithmic elsewhere
   Power law exponent                               =    0.140
   Mean shear across rotor disk                     =    0.200 (m/s)/m
   Assumed rotor diameter                           =  165.000 m
   Surface roughness length                         =    0.030 m

   Nyquist frequency of turbulent wind field        =   10.000 Hz

   Number of time steps in the FFT                  =    72600
   Number of time steps output                      =    72600
   Number of points simulated                       =      169


Mean Flow Angles:

   Vertical   =   0.0 degrees
   Horizontal =   0.0 degrees

Mean Wind Speed Profile:

   Height    Wind Speed   Horizontal Angle  Vertical Angle  U-comp (X)   V-comp (Y)   W-comp (Z)
     (m)        (m/s)         (degrees)       (degrees)       (m/s)        (m/s)        (m/s)   
   ------    ----------   ----------------  --------------  ----------   ----------   ----------
    172.5       93.11            0.00            0.00         93.11         0.00         0.00
    158.8       92.03            0.00            0.00         92.03         0.00         0.00
    145.0       90.87            0.00            0.00         90.87         0.00         0.00
    131.2       89.61            0.00            0.00         89.61         0.00         0.00
    117.5       88.23            0.00            0.00         88.23         0.00         0.00
    103.8       86.71            0.00            0.00         86.71         0.00         0.00
     90.0       85.00            0.00            0.00         85.00         0.00         0.00
     76.2       83.05            0.00            0.00         83.05         0.00         0.00
     62.5       80.77            0.00            0.00         80.77         0.00         0.00
     48.8       78.01            0.00            0.00         78.01         0.00         0.00
     35.0       74.47            0.00            0.00         74.47         0.00         0.00
     21.2       69.45            0.00            0.00         69.45         0.00         0.00
      7.5       60.03            0.00            0.00         60.03         0.00         0.00


Harvested Random Seeds after Generation of the Random Numbers:

   2110154368 Harvested seed # 1
    967694281 Harvested seed # 2


Hub-Height Simulated Turbulence Statistical Summary:

   Type of Wind        Min (m/s)   Mean (m/s)    Max (m/s)  Sigma (m/s)       TI (%)
   ----------------    ---------   ----------    ---------  -----------       ------
   Longitudinal (u)        49.48        85.00       123.17        9.422       11.085
   Lateral (v)            -32.15         0.00        31.94        7.275        8.559
   Vertical (w)           -17.27        -0.00        17.95        4.352        5.120
   U component             49.48        85.00       123.17        9.422       11.085
   V component            -32.15         0.00        31.94        7.275        8.559
   W component            -17.27        -0.00        17.95        4.352        5.120
   Horizontal (U&V)        50.10        85.31       123.54        9.385       11.000
   Total                   50.13        85.43       123.56        9.374       10.973

                       Min Reynolds     Mean Reynolds    Max Reynolds    Correlation
   Product             Stress (m/s)^2   Stress (m/s)^2   Stress (m/s)^2  Coefficient
   ----------------    --------------   --------------   --------------  -----------
   u'w'                   -368.458            -0.006           487.423        -0.000
   u'v'                   -594.305            -3.513           558.709        -0.051
   v'w'                   -290.744             0.204           251.909         0.006


   Friction Velocity (Ustar)  =      0.076 m/s
   Maximum Instantaneous TKE  =    776.692 (m/s)^2
   Maximum Instantaneous CTKE =    342.265 (m/s)^2


Grid Point Variance Summary:

   Y-coord  -82.50  -68.75  -55.00  -41.25  -27.50  -13.75    0.00   13.75   27.50   41.25   55.00   68.75   82.50

   Height   Standard deviation at grid points for the u component:
   172.50    9.467   9.282   9.357   9.522   9.554   9.419   9.293   9.324   9.220   9.215   9.243   9.129   9.055
   158.75    9.338   9.324   9.412   9.425   9.326   9.433   9.293   9.366   9.338   9.339   9.315   9.206   9.092
   145.00    9.241   9.330   9.456   9.381   9.246   9.256   9.485   9.483   9.340   9.347   9.403   9.424   9.258
   131.25    9.232   9.346   9.442   9.389   9.347   9.343   9.388   9.430   9.338   9.402   9.336   9.345   9.296
   117.50    9.194   9.411   9.384   9.433   9.417   9.290   9.382   9.416   9.471   9.328   9.271   9.186   9.097
   103.75    9.354   9.524   9.384   9.387   9.477   9.407   9.452   9.336   9.337   9.283   9.223   9.266   9.194
    90.00    9.566   9.514   9.450   9.351   9.302   9.213   9.422   9.424   9.282   9.376   9.223   9.225   9.232
    76.25    9.448   9.455   9.504   9.372   9.296   9.218   9.317   9.246   9.218   9.249   9.270   9.244   9.306
    62.50    9.402   9.502   9.271   9.285   9.268   9.248   9.167   9.289   9.217   9.249   9.287   9.169   9.346
    48.75    9.298   9.362   9.343   9.265   9.270   9.316   9.111   9.077   9.104   9.143   9.142   9.234   9.236
    35.00    9.276   9.221   9.264   9.212   9.210   9.264   9.162   9.202   9.211   9.105   9.042   9.106   9.220
    21.25    9.193   9.140   9.173   9.179   9.225   9.178   9.104   9.118   9.039   9.056   9.071   9.134   9.120
     7.50    9.218   9.097   9.232   9.329   9.196   9.323   9.094   9.027   8.980   8.944   9.044   9.013   8.999

   Height   Standard deviation at grid points for the v component:
   172.50    7.275   7.275   7.275   7.275   7.275   7.275   7.275   7.275   7.275   7.275   7.275   7.275   7.275
   158.75    7.275   7.275   7.275   7.275   7.275   7.275   7.275   7.275   7.275   7.275   7.275   7.275   7.275
   145.00    7.275   7.275   7.275   7.275   7.275   7.275   7.275   7.275   7.275   7.275   7.275   7.275   7.275
   131.25    7.275   7.275   7.275   7.275   7.275   7.275   7.275   7.275   7.275   7.275   7.275   7.275   7.275
   117.50    7.275   7.275   7.275   7.275   7.275   7.275   7.275   7.275   7.275   7.275   7.275   7.275   7.275
   103.75    7.275   7.275   7.275   7.275   7.275   7.275   7.275   7.275   7.275   7.275   7.275   7.275   7.275
    90.00    7.275   7.275   7.275   7.275   7.275   7.275   7.275   7.275   7.275   7.275   7.275   7.275   7.275
    76.25    7.275   7.275   7.275   7.275   7.275   7.275   7.275   7.275   7.275   7.275   7.275   7.275   7.275
    62.50    7.275   7.275   7.275   7.275   7.275   7.275   7.275   7.275   7.275   7.275   7.275   7.275   7.275
    48.75    7.275   7.275   7.275   7.275   7.275   7.275   7.275   7.275   7.275   7.275   7.275   7.275   7.275
    35.00    7.275   7.275   7.275   7.275   7.275   7.275   7.275   7.275   7.275   7.275   7.275   7.275   7.275
    21.25    7.275   7.275   7.275   7.275   7.275   7.275   7.275   7.275   7.275   7.275   7.275   7.275   7.275
     7.50    7.275   7.275   7.275   7.275   7.275   7.275   7.275   7.275   7.275   7.275   7.275   7.275   7.275

   Height   Standard deviation at grid points for the w component:
   172.50    4.352   4.352   4.352   4.352   4.352   4.352   4.352   4.352   4.352   4.352   4.352   4.352   4.352
   158.75    4.352   4.352   4.352   4.352   4.352   4.352   4.352   4.352   4.352   4.352   4.352   4.352   4.352
   145.00    4.352   4.352   4.352   4.352   4.352   4.352   4.352   4.352   4.352   4.352   4.352   4.352   4.352
   131.25    4.352   4.352   4.352   4.352   4.352   4.352   4.352   4.352   4.352   4.352   4.352   4.352   4.352
   117.50    4.352   4.352   4.352   4.352   4.352   4.352   4.352   4.352   4.352   4.352   4.352   4.352   4.352
   103.75    4.352   4.352   4.352   4.352   4.352   4.352   4.352   4.352   4.352   4.352   4.352   4.352   4.352
    90.00    4.352   4.352   4.352   4.352   4.352   4.352   4.352   4.352   4.352   4.352   4.352   4.352   4.352
    76.25    4.352   4.352   4.352   4.352   4.352   4.352   4.352   4.352   4.352   4.352   4.352   4.352   4.352
    62.50    4.352   4.352   4.352   4.352   4.352   4.352   4.352   4.352   4.352   4.352   4.352   4.352   4.352
    48.75    4.352   4.352   4.352   4.352   4.352   4.352   4.352   4.352   4.352   4.352   4.352   4.352   4.352
    35.00    4.352   4.352   4.352   4.352   4.352   4.352   4.352   4.352   4.352   4.352   4.352   4.352   4.352
    21.25    4.352   4.352   4.352   4.352   4.352   4.352   4.352   4.352   4.352   4.352   4.352   4.352   4.352
     7.50    4.352   4.352   4.352   4.352   4.352   4.352   4.352   4.352   4.352   4.352   4.352   4.352   4.352

   Mean standard deviation across all grid points:
      u component:    9.281 m/s
      v component:    7.275 m/s
      w component:    4.352 m/s


U-component (X) statistics from the interpolated hub point:

   Mean =  85.0000 m/s
   TI   =  11.0847 %


Processing complete.  16 CPU seconds used.
